1
    SWAT Mar 4 2014    VER 2012/Rev 622                                                                  0/ 0/   0      0: 0: 0

    General Input/Output section (file.cio):                                        
    3/13/2014 12:00:00 AM ARCGIS-SWAT interface AV                                  
                                                                                    
         Number of years in run:   11
         Area of watershed:      240.994 km2
         Random number generator cycles: 0, use default numbers

         Initial random number seed: wet/dry day prob        748932582
         Initial random number seed: radiation              1948832765
         Initial random number seed: precipitation           857034417
         Initial random number seed: 0.5 hr rainfall          67377721
         Initial random number seed: wind speed              366304404
         Initial random number seed: irrigation             1094585182
         Initial random number seed: relative humidity      1767585417
         Initial random number seed: max temperature         608439319
         Initial random number seed: min temperature         592757081

         Precipitation data used in run:
          Multiple gages read for watershed
             Daily rainfall data used

         Temperature data used in run:
          Multiple gages read for watershed

         PET method used: Penman-Monteith

         Rainfall/Runoff/Routing Option:
          Daily rainfall data
          Runoff estimated with curve number method
          Daily stream routing
           Variable Storage routing method
           Channel dimensions remain constant
           Subbasin algae/CBOD loadings not modeled
           In-stream nutrient transformations modeled using QUAL2E equations

         Subbasin Input Summary:
          Sub Latitude  Elev(m) #HRUs Ponds Elevbnds Wetlnd
            1    47.90   553.33    11                   
            2    47.90   579.84    16                   
            3    47.90   517.52    15                   
            4    47.90   701.48     7                   
            5    47.90   481.18     7                   
            6    47.90   594.10     7                   
            7    47.90   519.89     7                   
            8    47.90   662.97     6                   
            9    47.90   481.00     5                   

         HRU Input Summary Table 1:
          Sub   HRU   Area(ha) Slope SlpLgth(m) Ovrlnd_N CondII_CN TimeConc(hr) ESCO EPCO
            1      1     238.53 0.029      91.46    0.150     84.00        0.870 0.95 1.00
            1      2     349.26 0.075      60.98    0.150     84.00        0.591 0.95 1.00
            1      3     537.14 0.146      24.39    0.150     84.00        0.412 0.95 1.00
            1      4     406.39 0.269       9.15    0.150     84.00        0.253 0.95 1.00
            1      5     190.88 0.159      24.39    0.100     79.00        0.244 0.95 1.00
            1      6     294.43 0.536       9.15    0.100     79.00        0.179 0.95 1.00
            1      7     541.50 0.291       9.15    0.100     79.00        0.274 0.95 1.00
            1      8     299.60 0.026      91.46    0.140     87.00        0.885 0.95 1.00
            1      9     256.95 0.074      60.98    0.140     87.00        0.543 0.95 1.00
            1     10     345.22 0.143      24.39    0.140     87.00        0.341 0.95 1.00
            1     11     151.10 0.266       9.15    0.140     87.00        0.161 0.95 1.00
            2     12     463.76 0.146      24.39    0.150     69.00        0.440 0.95 1.00
            2     13     282.87 0.075      60.98    0.150     69.00        0.602 0.95 1.00
            2     14     256.76 0.269       9.15    0.150     69.00        0.233 0.95 1.00
            2     15     463.95 0.025      91.46    0.150     69.00        1.034 0.95 1.00
            2     16     229.80 0.030      91.46    0.150     69.00        0.887 0.95 1.00
            2     17     153.34 0.281       9.15    0.150     69.00        0.183 0.95 1.00
            2     18     283.95 0.074      60.98    0.150     69.00        0.604 0.95 1.00
            2     19     257.93 0.141      24.39    0.150     69.00        0.352 0.95 1.00
            2     20     790.89 0.290       9.15    0.100     60.00        0.434 0.95 1.00
            2     21     383.79 0.154      24.39    0.100     60.00        0.356 0.95 1.00
            2     22     291.86 0.511       9.15    0.100     60.00        0.214 0.95 1.00
            2     23      30.24 0.029      91.46    0.100     60.00        0.627 0.95 1.00
            2     24      25.12 0.073      60.98    0.100     60.00        0.378 0.95 1.00
            2     25      34.05 0.153      24.39    0.100     60.00        0.190 0.95 1.00
            2     26      97.97 0.292       9.15    0.100     60.00        0.134 0.95 1.00
            2     27      26.79 0.478       9.15    0.100     60.00        0.084 0.95 1.00
            3     28      40.35 0.076      60.98    0.150     69.00        0.476 0.95 1.00
            3     29     111.73 0.146      24.39    0.150     69.00        0.267 0.95 1.00
            3     30      49.08 0.256       9.15    0.150     69.00        0.126 0.95 1.00
            3     31     102.33 0.020      91.46    0.150     69.00        0.913 0.95 1.00
            3     32     246.36 0.024      91.46    0.150     84.00        0.923 0.95 1.00
            3     33     168.94 0.074      60.98    0.150     84.00        0.532 0.95 1.00
            3     34     125.08 0.268       9.15    0.150     84.00        0.157 0.95 1.00
            3     35     224.34 0.143      24.39    0.150     84.00        0.312 0.95 1.00
            3     36      61.52 0.540       9.15    0.100     60.00        0.094 0.95 1.00
            3     37     166.66 0.289       9.15    0.100     60.00        0.150 0.95 1.00
            3     38      59.78 0.154      24.39    0.100     60.00        0.196 0.95 1.00
            3     39      60.26 0.493       9.15    0.100     79.00        0.095 0.95 1.00
            3     40     138.40 0.295       9.15    0.100     79.00        0.138 0.95 1.00
            3     41      39.08 0.028      91.46    0.100     79.00        0.634 0.95 1.00
            3     42      56.28 0.155      24.39    0.100     79.00        0.194 0.95 1.00
            4     43     277.05 0.026      91.46    0.150     69.00        0.984 0.95 1.00
            4     44     348.86 0.147      24.39    0.150     69.00        0.440 0.95 1.00
            4     45     263.36 0.272       9.15    0.150     69.00        0.275 0.95 1.00
            4     46     225.06 0.075      60.98    0.150     69.00        0.610 0.95 1.00
            4     47     386.44 0.297       9.15    0.100     60.00        0.322 0.95 1.00
            4     48     313.44 0.543       9.15    0.100     60.00        0.268 0.95 1.00
            4     49     167.79 0.154      24.39    0.100     60.00        0.285 0.95 1.00
            5     50     227.40 0.074      60.98    0.150     84.00        0.530 0.95 1.00
            5     51     328.52 0.022      91.46    0.150     84.00        0.940 0.95 1.00
            5     52     344.60 0.146      24.39    0.150     84.00        0.319 0.95 1.00
            5     53     360.68 0.285       9.15    0.150     84.00        0.206 0.95 1.00
            5     54     211.90 0.305       9.15    0.100     79.00        0.143 0.95 1.00
            5     55     153.07 0.523       9.15    0.100     79.00        0.115 0.95 1.00
            5     56     589.70 0.001     121.95    0.010     92.00        0.663 0.95 1.00
            6     57     655.33 0.276       9.15    0.150     84.00        0.230 0.95 1.00
            6     58     700.04 0.147      24.39    0.150     84.00        0.354 0.95 1.00
            6     59     421.79 0.074      60.98    0.150     84.00        0.547 0.95 1.00
            6     60     423.32 0.028      91.46    0.150     84.00        0.871 0.95 1.00
            6     61     910.57 0.529       9.15    0.100     79.00        0.238 0.95 1.00
            6     62    1027.03 0.301       9.15    0.100     79.00        0.269 0.95 1.00
            6     63     411.18 0.154      24.39    0.100     79.00        0.253 0.95 1.00
            7     64      39.55 0.269       9.15    0.150     84.00        0.125 0.95 1.00
            7     65     201.43 0.018     121.95    0.150     84.00        1.166 0.95 1.00
            7     66      58.30 0.073      60.98    0.150     84.00        0.496 0.95 1.00
            7     67      68.06 0.143      24.39    0.150     84.00        0.258 0.95 1.00
            7     68      59.82 0.158      24.39    0.100     79.00        0.201 0.95 1.00
            7     69     155.52 0.292       9.15    0.100     79.00        0.160 0.95 1.00
            7     70     151.11 1.000       9.15    0.100     79.00        0.134 0.95 1.00
            8     71     208.30 0.027      91.46    0.150     69.00        0.846 0.95 1.00
            8     72     223.25 0.075      60.98    0.150     69.00        0.515 0.95 1.00
            8     73     335.99 0.145      24.39    0.150     69.00        0.301 0.95 1.00
            8     74     235.17 0.276       9.15    0.150     69.00        0.161 0.95 1.00
            8     75    1348.73 0.630       9.15    0.100     60.00        0.346 0.95 1.00
            8     76     733.40 0.305       9.15    0.100     60.00        0.243 0.95 1.00
            9     77     799.63 0.759       9.15    0.100     60.00        0.185 0.95 1.00
            9     78     205.66 0.307       9.15    0.100     60.00        0.114 0.95 1.00
            9     79     340.36 0.626       9.15    0.100     79.00        0.121 0.95 1.00
            9     80     155.17 0.308       9.15    0.100     79.00        0.106 0.95 1.00
            9     81     698.50 0.001     121.95    0.010     92.00        0.611 0.95 1.00

         HRU CN Input Summary Table:
          Sub   HRU   Area(ha)  LULC      Soil    CN1    CN2    CN3  Wilting Point (mm H2O)  Field Capacity (mm H2O)  Saturation (mm H2O)
            1      1     238.53  PAST  pLB        68.4   84.0   93.5                   105.0                    190.0                423.3
            1      2     349.26  PAST  pLB        68.4   84.0   93.5                   105.0                    190.0                423.3
            1      3     537.14  PAST  pLB        68.4   84.0   93.5                   105.0                    190.0                423.3
            1      4     406.39  PAST  pLB        68.4   84.0   93.5                   105.0                    190.0                423.3
            1      5     190.88  FRST  pLB        61.7   79.0   91.0                   105.0                    190.0                423.3
            1      6     294.43  FRST  pLB        61.7   79.0   91.0                   105.0                    190.0                423.3
            1      7     541.50  FRST  pLB        61.7   79.0   91.0                   105.0                    190.0                423.3
            1      8     299.60  AGRL  pLB        73.0   87.0   95.0                   105.0                    190.0                423.3
            1      9     256.95  AGRL  pLB        73.0   87.0   95.0                   105.0                    190.0                423.3
            1     10     345.22  AGRL  pLB        73.0   87.0   95.0                   105.0                    190.0                423.3
            1     11     151.10  AGRL  pLB        73.0   87.0   95.0                   105.0                    190.0                423.3
            2     12     463.76  PAST  kLB        50.1   69.0   85.0                   165.0                    190.0                363.3
            2     13     282.87  PAST  kLB        50.1   69.0   85.0                   165.0                    190.0                363.3
            2     14     256.76  PAST  kLB        50.1   69.0   85.0                   165.0                    190.0                363.3
            2     15     463.95  PAST  kLB        50.1   69.0   85.0                   165.0                    190.0                363.3
            2     16     229.80  PAST  LB         50.1   69.0   85.0                    70.0                    190.0                458.3
            2     17     153.34  PAST  LB         50.1   69.0   85.0                    70.0                    190.0                458.3
            2     18     283.95  PAST  LB         50.1   69.0   85.0                    70.0                    190.0                458.3
            2     19     257.93  PAST  LB         50.1   69.0   85.0                    70.0                    190.0                458.3
            2     20     790.89  FRST  kLB        40.5   60.0   78.5                   165.0                    190.0                363.3
            2     21     383.79  FRST  kLB        40.5   60.0   78.5                   165.0                    190.0                363.3
            2     22     291.86  FRST  kLB        40.5   60.0   78.5                   165.0                    190.0                363.3
            2     23      30.24  FRST  LB         40.5   60.0   78.5                    70.0                    190.0                458.3
            2     24      25.12  FRST  LB         40.5   60.0   78.5                    70.0                    190.0                458.3
            2     25      34.05  FRST  LB         40.5   60.0   78.5                    70.0                    190.0                458.3
            2     26      97.97  FRST  LB         40.5   60.0   78.5                    70.0                    190.0                458.3
            2     27      26.79  FRST  LB         40.5   60.0   78.5                    70.0                    190.0                458.3
            3     28      40.35  PAST  kLB        50.1   69.0   85.0                   165.0                    190.0                363.3
            3     29     111.73  PAST  kLB        50.1   69.0   85.0                   165.0                    190.0                363.3
            3     30      49.08  PAST  kLB        50.1   69.0   85.0                   165.0                    190.0                363.3
            3     31     102.33  PAST  kLB        50.1   69.0   85.0                   165.0                    190.0                363.3
            3     32     246.36  PAST  pLB        68.4   84.0   93.5                   105.0                    190.0                423.3
            3     33     168.94  PAST  pLB        68.4   84.0   93.5                   105.0                    190.0                423.3
            3     34     125.08  PAST  pLB        68.4   84.0   93.5                   105.0                    190.0                423.3
            3     35     224.34  PAST  pLB        68.4   84.0   93.5                   105.0                    190.0                423.3
            3     36      61.52  FRST  kLB        40.5   60.0   78.5                   165.0                    190.0                363.3
            3     37     166.66  FRST  kLB        40.5   60.0   78.5                   165.0                    190.0                363.3
            3     38      59.78  FRST  kLB        40.5   60.0   78.5                   165.0                    190.0                363.3
            3     39      60.26  FRST  pLB        61.7   79.0   91.0                   105.0                    190.0                423.3
            3     40     138.40  FRST  pLB        61.7   79.0   91.0                   105.0                    190.0                423.3
            3     41      39.08  FRST  pLB        61.7   79.0   91.0                   105.0                    190.0                423.3
            3     42      56.28  FRST  pLB        61.7   79.0   91.0                   105.0                    190.0                423.3
            4     43     277.05  PAST  kLB        50.1   69.0   85.0                   165.0                    190.0                363.3
            4     44     348.86  PAST  kLB        50.1   69.0   85.0                   165.0                    190.0                363.3
            4     45     263.36  PAST  kLB        50.1   69.0   85.0                   165.0                    190.0                363.3
            4     46     225.06  PAST  kLB        50.1   69.0   85.0                   165.0                    190.0                363.3
            4     47     386.44  FRST  kLB        40.5   60.0   78.5                   165.0                    190.0                363.3
            4     48     313.44  FRST  kLB        40.5   60.0   78.5                   165.0                    190.0                363.3
            4     49     167.79  FRST  kLB        40.5   60.0   78.5                   165.0                    190.0                363.3
            5     50     227.40  PAST  pLB        68.4   84.0   93.5                   105.0                    190.0                423.3
            5     51     328.52  PAST  pLB        68.4   84.0   93.5                   105.0                    190.0                423.3
            5     52     344.60  PAST  pLB        68.4   84.0   93.5                   105.0                    190.0                423.3
            5     53     360.68  PAST  pLB        68.4   84.0   93.5                   105.0                    190.0                423.3
            5     54     211.90  FRST  pLB        61.7   79.0   91.0                   105.0                    190.0                423.3
            5     55     153.07  FRST  pLB        61.7   79.0   91.0                   105.0                    190.0                423.3
            5     56     589.70  WATR  pLB        81.7   92.0   97.1                   105.0                    190.0                423.3
            6     57     655.33  PAST  pLB        68.4   84.0   93.5                   105.0                    190.0                423.3
            6     58     700.04  PAST  pLB        68.4   84.0   93.5                   105.0                    190.0                423.3
            6     59     421.79  PAST  pLB        68.4   84.0   93.5                   105.0                    190.0                423.3
            6     60     423.32  PAST  pLB        68.4   84.0   93.5                   105.0                    190.0                423.3
            6     61     910.57  FRST  pLB        61.7   79.0   91.0                   105.0                    190.0                423.3
            6     62    1027.03  FRST  pLB        61.7   79.0   91.0                   105.0                    190.0                423.3
            6     63     411.18  FRST  pLB        61.7   79.0   91.0                   105.0                    190.0                423.3
            7     64      39.55  PAST  pLB        68.4   84.0   93.5                   105.0                    190.0                423.3
            7     65     201.43  PAST  pLB        68.4   84.0   93.5                   105.0                    190.0                423.3
            7     66      58.30  PAST  pLB        68.4   84.0   93.5                   105.0                    190.0                423.3
            7     67      68.06  PAST  pLB        68.4   84.0   93.5                   105.0                    190.0                423.3
            7     68      59.82  FRST  pLB        61.7   79.0   91.0                   105.0                    190.0                423.3
            7     69     155.52  FRST  pLB        61.7   79.0   91.0                   105.0                    190.0                423.3
            7     70     151.11  FRST  pLB        61.7   79.0   91.0                   105.0                    190.0                423.3
            8     71     208.30  PAST  kLB        50.1   69.0   85.0                   165.0                    190.0                363.3
            8     72     223.25  PAST  kLB        50.1   69.0   85.0                   165.0                    190.0                363.3
            8     73     335.99  PAST  kLB        50.1   69.0   85.0                   165.0                    190.0                363.3
            8     74     235.17  PAST  kLB        50.1   69.0   85.0                   165.0                    190.0                363.3
            8     75    1348.73  FRST  kLB        40.5   60.0   78.5                   165.0                    190.0                363.3
            8     76     733.40  FRST  kLB        40.5   60.0   78.5                   165.0                    190.0                363.3
            9     77     799.63  FRST  kLB        40.5   60.0   78.5                   165.0                    190.0                363.3
            9     78     205.66  FRST  kLB        40.5   60.0   78.5                   165.0                    190.0                363.3
            9     79     340.36  FRST  pLB        61.7   79.0   91.0                   105.0                    190.0                423.3
            9     80     155.17  FRST  pLB        61.7   79.0   91.0                   105.0                    190.0                423.3
            9     81     698.50  WATR  pLB        81.7   92.0   97.1                   105.0                    190.0                423.3

         HRU Input Summary Table 2:
          Sub   HRU   Area(ha)         SoilName Hydgrp MaxRtDpth(mm) Albedo USLE_K USLE_P USLE_LS ProfileAWC(mm) IniSoilH2O(mm)
            1      1     238.53 pLB                D          1000.00   0.10   0.49   1.00    0.44    190.000        157.854
            1      2     349.26 pLB                D          1000.00   0.10   0.49   1.00    1.36    190.000        157.854
            1      3     537.14 pLB                D          1000.00   0.10   0.49   1.00    2.21    190.000        157.854
            1      4     406.39 pLB                D          1000.00   0.10   0.49   1.00    3.33    190.000        157.854
            1      5     190.88 pLB                D          1000.00   0.10   0.49   1.00    2.54    190.000        157.854
            1      6     294.43 pLB                D          1000.00   0.10   0.49   1.00    9.90    190.000        157.854
            1      7     541.50 pLB                D          1000.00   0.10   0.49   1.00    3.79    190.000        157.854
            1      8     299.60 pLB                D          1000.00   0.10   0.49   1.00    0.38    190.000        157.854
            1      9     256.95 pLB                D          1000.00   0.10   0.49   1.00    1.33    190.000        157.854
            1     10     345.22 pLB                D          1000.00   0.10   0.49   1.00    2.14    190.000        157.854
            1     11     151.10 pLB                D          1000.00   0.10   0.49   1.00    3.27    190.000        157.854
            2     12     463.76 kLB                B          1000.00   0.10   0.49   1.00    2.21    190.000        157.854
            2     13     282.87 kLB                B          1000.00   0.10   0.49   1.00    1.36    190.000        157.854
            2     14     256.76 kLB                B          1000.00   0.10   0.49   1.00    3.33    190.000        157.854
            2     15     463.95 kLB                B          1000.00   0.10   0.49   1.00    0.36    190.000        157.854
            2     16     229.80 LB                 B          1000.00   0.10   0.49   1.00    0.46    190.000        157.854
            2     17     153.34 LB                 B          1000.00   0.10   0.49   1.00    3.58    190.000        157.854
            2     18     283.95 LB                 B          1000.00   0.10   0.49   1.00    1.33    190.000        157.854
            2     19     257.93 LB                 B          1000.00   0.10   0.49   1.00    2.09    190.000        157.854
            2     20     790.89 kLB                B          1000.00   0.10   0.49   1.00    3.77    190.000        157.854
            2     21     383.79 kLB                B          1000.00   0.10   0.49   1.00    2.41    190.000        157.854
            2     22     291.86 kLB                B          1000.00   0.10   0.49   1.00    9.23    190.000        157.854
            2     23      30.24 LB                 B          1000.00   0.10   0.49   1.00    0.44    190.000        157.854
            2     24      25.12 LB                 B          1000.00   0.10   0.49   1.00    1.31    190.000        157.854
            2     25      34.05 LB                 B          1000.00   0.10   0.49   1.00    2.39    190.000        157.854
            2     26      97.97 LB                 B          1000.00   0.10   0.49   1.00    3.82    190.000        157.854
            2     27      26.79 LB                 B          1000.00   0.10   0.49   1.00    8.36    190.000        157.854
            3     28      40.35 kLB                B          1000.00   0.10   0.49   1.00    1.39    190.000        157.854
            3     29     111.73 kLB                B          1000.00   0.10   0.49   1.00    2.21    190.000        157.854
            3     30      49.08 kLB                B          1000.00   0.10   0.49   1.00    3.07    190.000        157.854
            3     31     102.33 kLB                B          1000.00   0.10   0.49   1.00    0.28    190.000        157.854
            3     32     246.36 pLB                D          1000.00   0.10   0.49   1.00    0.35    190.000        157.854
            3     33     168.94 pLB                D          1000.00   0.10   0.49   1.00    1.33    190.000        157.854
            3     34     125.08 pLB                D          1000.00   0.10   0.49   1.00    3.31    190.000        157.854
            3     35     224.34 pLB                D          1000.00   0.10   0.49   1.00    2.14    190.000        157.854
            3     36      61.52 kLB                B          1000.00   0.10   0.49   1.00   10.00    190.000        157.854
            3     37     166.66 kLB                B          1000.00   0.10   0.49   1.00    3.75    190.000        157.854
            3     38      59.78 kLB                B          1000.00   0.10   0.49   1.00    2.41    190.000        157.854
            3     39      60.26 pLB                D          1000.00   0.10   0.49   1.00    8.75    190.000        157.854
            3     40     138.40 pLB                D          1000.00   0.10   0.49   1.00    3.88    190.000        157.854
            3     41      39.08 pLB                D          1000.00   0.10   0.49   1.00    0.42    190.000        157.854
            3     42      56.28 pLB                D          1000.00   0.10   0.49   1.00    2.44    190.000        157.854
            4     43     277.05 kLB                B          1000.00   0.10   0.49   1.00    0.38    190.000        157.854
            4     44     348.86 kLB                B          1000.00   0.10   0.49   1.00    2.24    190.000        157.854
            4     45     263.36 kLB                B          1000.00   0.10   0.49   1.00    3.39    190.000        157.854
            4     46     225.06 kLB                B          1000.00   0.10   0.49   1.00    1.36    190.000        157.854
            4     47     386.44 kLB                B          1000.00   0.10   0.49   1.00    3.92    190.000        157.854
            4     48     313.44 kLB                B          1000.00   0.10   0.49   1.00   10.08    190.000        157.854
            4     49     167.79 kLB                B          1000.00   0.10   0.49   1.00    2.41    190.000        157.854
            5     50     227.40 pLB                D          1000.00   0.10   0.49   1.00    1.33    190.000        157.854
            5     51     328.52 pLB                D          1000.00   0.10   0.49   1.00    0.31    190.000        157.854
            5     52     344.60 pLB                D          1000.00   0.10   0.49   1.00    2.21    190.000        157.854
            5     53     360.68 pLB                D          1000.00   0.10   0.49   1.00    3.67    190.000        157.854
            5     54     211.90 pLB                D          1000.00   0.10   0.49   1.00    4.10    190.000        157.854
            5     55     153.07 pLB                D          1000.00   0.10   0.49   1.00    9.55    190.000        157.854
            5     56     589.70 pLB                D          1000.00   0.10   0.49   1.00    0.07    190.000        157.854
            6     57     655.33 pLB                D          1000.00   0.10   0.49   1.00    3.48    190.000        157.854
            6     58     700.04 pLB                D          1000.00   0.10   0.49   1.00    2.24    190.000        157.854
            6     59     421.79 pLB                D          1000.00   0.10   0.49   1.00    1.33    190.000        157.854
            6     60     423.32 pLB                D          1000.00   0.10   0.49   1.00    0.42    190.000        157.854
            6     61     910.57 pLB                D          1000.00   0.10   0.49   1.00    9.71    190.000        157.854
            6     62    1027.03 pLB                D          1000.00   0.10   0.49   1.00    4.01    190.000        157.854
            6     63     411.18 pLB                D          1000.00   0.10   0.49   1.00    2.41    190.000        157.854
            7     64      39.55 pLB                D          1000.00   0.10   0.49   1.00    3.33    190.000        157.854
            7     65     201.43 pLB                D          1000.00   0.10   0.49   1.00    0.27    190.000        157.854
            7     66      58.30 pLB                D          1000.00   0.10   0.49   1.00    1.31    190.000        157.854
            7     67      68.06 pLB                D          1000.00   0.10   0.49   1.00    2.14    190.000        157.854
            7     68      59.82 pLB                D          1000.00   0.10   0.49   1.00    2.51    190.000        157.854
            7     69     155.52 pLB                D          1000.00   0.10   0.49   1.00    3.82    190.000        157.854
            7     70     151.11 pLB                D          1000.00   0.10   0.49   1.00   21.18    190.000        157.854
            8     71     208.30 kLB                B          1000.00   0.10   0.49   1.00    0.40    190.000        157.854
            8     72     223.25 kLB                B          1000.00   0.10   0.49   1.00    1.36    190.000        157.854
            8     73     335.99 kLB                B          1000.00   0.10   0.49   1.00    2.19    190.000        157.854
            8     74     235.17 kLB                B          1000.00   0.10   0.49   1.00    3.48    190.000        157.854
            8     75    1348.73 kLB                B          1000.00   0.10   0.49   1.00   12.41    190.000        157.854
            8     76     733.40 kLB                B          1000.00   0.10   0.49   1.00    4.10    190.000        157.854
            9     77     799.63 kLB                B          1000.00   0.10   0.49   1.00   15.73    190.000        157.854
            9     78     205.66 kLB                B          1000.00   0.10   0.49   1.00    4.14    190.000        157.854
            9     79     340.36 pLB                D          1000.00   0.10   0.49   1.00   12.30    190.000        157.854
            9     80     155.17 pLB                D          1000.00   0.10   0.49   1.00    4.16    190.000        157.854
            9     81     698.50 pLB                D          1000.00   0.10   0.49   1.00    0.07    190.000        157.854

         HRU Input Summary Table 3:
          Sub   HRU   Area(ha) Urban Irrig DrainTiles Pothole Pstcide Biomix Septic
            1      1     238.53                                          0.20 x
            1      2     349.26                                          0.20 x
            1      3     537.14                                          0.20 x
            1      4     406.39                                          0.20 x
            1      5     190.88                                          0.20 x
            1      6     294.43                                          0.20 x
            1      7     541.50                                          0.20 x
            1      8     299.60                                          0.20 x
            1      9     256.95                                          0.20 x
            1     10     345.22                                          0.20 x
            1     11     151.10                                          0.20 x
            2     12     463.76                                          0.20 x
            2     13     282.87                                          0.20 x
            2     14     256.76                                          0.20 x
            2     15     463.95                                          0.20 x
            2     16     229.80                                          0.20 x
            2     17     153.34                                          0.20 x
            2     18     283.95                                          0.20 x
            2     19     257.93                                          0.20 x
            2     20     790.89                                          0.20 x
            2     21     383.79                                          0.20 x
            2     22     291.86                                          0.20 x
            2     23      30.24                                          0.20 x
            2     24      25.12                                          0.20 x
            2     25      34.05                                          0.20 x
            2     26      97.97                                          0.20 x
            2     27      26.79                                          0.20 x
            3     28      40.35                                          0.20 x
            3     29     111.73                                          0.20 x
            3     30      49.08                                          0.20 x
            3     31     102.33                                          0.20 x
            3     32     246.36                                          0.20 x
            3     33     168.94                                          0.20 x
            3     34     125.08                                          0.20 x
            3     35     224.34                                          0.20 x
            3     36      61.52                                          0.20 x
            3     37     166.66                                          0.20 x
            3     38      59.78                                          0.20 x
            3     39      60.26                                          0.20 x
            3     40     138.40                                          0.20 x
            3     41      39.08                                          0.20 x
            3     42      56.28                                          0.20 x
            4     43     277.05                                          0.20 x
            4     44     348.86                                          0.20 x
            4     45     263.36                                          0.20 x
            4     46     225.06                                          0.20 x
            4     47     386.44                                          0.20 x
            4     48     313.44                                          0.20 x
            4     49     167.79                                          0.20 x
            5     50     227.40                                          0.20 x
            5     51     328.52                                          0.20 x
            5     52     344.60                                          0.20 x
            5     53     360.68                                          0.20 x
            5     54     211.90                                          0.20 x
            5     55     153.07                                          0.20 x
            5     56     589.70                                          0.20 x
            6     57     655.33                                          0.20 x
            6     58     700.04                                          0.20 x
            6     59     421.79                                          0.20 x
            6     60     423.32                                          0.20 x
            6     61     910.57                                          0.20 x
            6     62    1027.03                                          0.20 x
            6     63     411.18                                          0.20 x
            7     64      39.55                                          0.20 x
            7     65     201.43                                          0.20 x
            7     66      58.30                                          0.20 x
            7     67      68.06                                          0.20 x
            7     68      59.82                                          0.20 x
            7     69     155.52                                          0.20 x
            7     70     151.11                                          0.20 x
            8     71     208.30                                          0.20 x
            8     72     223.25                                          0.20 x
            8     73     335.99                                          0.20 x
            8     74     235.17                                          0.20 x
            8     75    1348.73                                          0.20 x
            8     76     733.40                                          0.20 x
            9     77     799.63                                          0.20 x
            9     78     205.66                                          0.20 x
            9     79     340.36                                          0.20 x
            9     80     155.17                                          0.20 x
            9     81     698.50                                          0.20 x

         HRU Input Summary Table 4 (Groundwater):
          Sub   HRU   Area(ha) GWdelay(days), GWalpha(days) GWQmin(mm) GWrevap Revapmin(mm) Deepfr NO3(ppm) SolP(ppm)
            1      1     238.53        25.000         0.340      0.300   0.020        1.000  0.050    0.000     0.000
            1      2     349.26        25.000         0.340      0.300   0.020        1.000  0.050    0.000     0.000
            1      3     537.14        25.000         0.340      0.300   0.020        1.000  0.050    0.000     0.000
            1      4     406.39        25.000         0.340      0.300   0.020        1.000  0.050    0.000     0.000
            1      5     190.88        25.000         0.340      0.300   0.020        1.000  0.050    0.000     0.000
            1      6     294.43        25.000         0.340      0.300   0.020        1.000  0.050    0.000     0.000
            1      7     541.50        25.000         0.340      0.300   0.020        1.000  0.050    0.000     0.000
            1      8     299.60        25.000         0.340      0.300   0.020        1.000  0.050    0.000     0.000
            1      9     256.95        25.000         0.340      0.300   0.020        1.000  0.050    0.000     0.000
            1     10     345.22        25.000         0.340      0.300   0.020        1.000  0.050    0.000     0.000
            1     11     151.10        25.000         0.340      0.300   0.020        1.000  0.050    0.000     0.000
            2     12     463.76        25.000         0.340      0.300   0.020        1.000  0.050    0.000     0.000
            2     13     282.87        25.000         0.340      0.300   0.020        1.000  0.050    0.000     0.000
            2     14     256.76        25.000         0.340      0.300   0.020        1.000  0.050    0.000     0.000
            2     15     463.95        25.000         0.340      0.300   0.020        1.000  0.050    0.000     0.000
            2     16     229.80        25.000         0.340      0.300   0.020        1.000  0.050    0.000     0.000
            2     17     153.34        25.000         0.340      0.300   0.020        1.000  0.050    0.000     0.000
            2     18     283.95        25.000         0.340      0.300   0.020        1.000  0.050    0.000     0.000
            2     19     257.93        25.000         0.340      0.300   0.020        1.000  0.050    0.000     0.000
            2     20     790.89        25.000         0.340      0.300   0.020        1.000  0.050    0.000     0.000
            2     21     383.79        25.000         0.340      0.300   0.020        1.000  0.050    0.000     0.000
            2     22     291.86        25.000         0.340      0.300   0.020        1.000  0.050    0.000     0.000
            2     23      30.24        25.000         0.340      0.300   0.020        1.000  0.050    0.000     0.000
            2     24      25.12        25.000         0.340      0.300   0.020        1.000  0.050    0.000     0.000
            2     25      34.05        25.000         0.340      0.300   0.020        1.000  0.050    0.000     0.000
            2     26      97.97        25.000         0.340      0.300   0.020        1.000  0.050    0.000     0.000
            2     27      26.79        25.000         0.340      0.300   0.020        1.000  0.050    0.000     0.000
            3     28      40.35        25.000         0.340      0.300   0.020        1.000  0.050    0.000     0.000
            3     29     111.73        25.000         0.340      0.300   0.020        1.000  0.050    0.000     0.000
            3     30      49.08        25.000         0.340      0.300   0.020        1.000  0.050    0.000     0.000
            3     31     102.33        25.000         0.340      0.300   0.020        1.000  0.050    0.000     0.000
            3     32     246.36        25.000         0.340      0.300   0.020        1.000  0.050    0.000     0.000
            3     33     168.94        25.000         0.340      0.300   0.020        1.000  0.050    0.000     0.000
            3     34     125.08        25.000         0.340      0.300   0.020        1.000  0.050    0.000     0.000
            3     35     224.34        25.000         0.340      0.300   0.020        1.000  0.050    0.000     0.000
            3     36      61.52        25.000         0.340      0.300   0.020        1.000  0.050    0.000     0.000
            3     37     166.66        25.000         0.340      0.300   0.020        1.000  0.050    0.000     0.000
            3     38      59.78        25.000         0.340      0.300   0.020        1.000  0.050    0.000     0.000
            3     39      60.26        25.000         0.340      0.300   0.020        1.000  0.050    0.000     0.000
            3     40     138.40        25.000         0.340      0.300   0.020        1.000  0.050    0.000     0.000
            3     41      39.08        25.000         0.340      0.300   0.020        1.000  0.050    0.000     0.000
            3     42      56.28        25.000         0.340      0.300   0.020        1.000  0.050    0.000     0.000
            4     43     277.05        25.000         0.340      0.300   0.020        1.000  0.050    0.000     0.000
            4     44     348.86        25.000         0.340      0.300   0.020        1.000  0.050    0.000     0.000
            4     45     263.36        25.000         0.340      0.300   0.020        1.000  0.050    0.000     0.000
            4     46     225.06        25.000         0.340      0.300   0.020        1.000  0.050    0.000     0.000
            4     47     386.44        25.000         0.340      0.300   0.020        1.000  0.050    0.000     0.000
            4     48     313.44        25.000         0.340      0.300   0.020        1.000  0.050    0.000     0.000
            4     49     167.79        25.000         0.340      0.300   0.020        1.000  0.050    0.000     0.000
            5     50     227.40        25.000         0.340      0.300   0.020        1.000  0.050    0.000     0.000
            5     51     328.52        25.000         0.340      0.300   0.020        1.000  0.050    0.000     0.000
            5     52     344.60        25.000         0.340      0.300   0.020        1.000  0.050    0.000     0.000
            5     53     360.68        25.000         0.340      0.300   0.020        1.000  0.050    0.000     0.000
            5     54     211.90        25.000         0.340      0.300   0.020        1.000  0.050    0.000     0.000
            5     55     153.07        25.000         0.340      0.300   0.020        1.000  0.050    0.000     0.000
            5     56     589.70        25.000         0.340      0.300   0.020        1.000  0.050    0.000     0.000
            6     57     655.33        25.000         0.340      0.300   0.020        1.000  0.050    0.000     0.000
            6     58     700.04        25.000         0.340      0.300   0.020        1.000  0.050    0.000     0.000
            6     59     421.79        25.000         0.340      0.300   0.020        1.000  0.050    0.000     0.000
            6     60     423.32        25.000         0.340      0.300   0.020        1.000  0.050    0.000     0.000
            6     61     910.57        25.000         0.340      0.300   0.020        1.000  0.050    0.000     0.000
            6     62    1027.03        25.000         0.340      0.300   0.020        1.000  0.050    0.000     0.000
            6     63     411.18        25.000         0.340      0.300   0.020        1.000  0.050    0.000     0.000
            7     64      39.55        25.000         0.340      0.300   0.020        1.000  0.050    0.000     0.000
            7     65     201.43        25.000         0.340      0.300   0.020        1.000  0.050    0.000     0.000
            7     66      58.30        25.000         0.340      0.300   0.020        1.000  0.050    0.000     0.000
            7     67      68.06        25.000         0.340      0.300   0.020        1.000  0.050    0.000     0.000
            7     68      59.82        25.000         0.340      0.300   0.020        1.000  0.050    0.000     0.000
            7     69     155.52        25.000         0.340      0.300   0.020        1.000  0.050    0.000     0.000
            7     70     151.11        25.000         0.340      0.300   0.020        1.000  0.050    0.000     0.000
            8     71     208.30        25.000         0.340      0.300   0.020        1.000  0.050    0.000     0.000
            8     72     223.25        25.000         0.340      0.300   0.020        1.000  0.050    0.000     0.000
            8     73     335.99        25.000         0.340      0.300   0.020        1.000  0.050    0.000     0.000
            8     74     235.17        25.000         0.340      0.300   0.020        1.000  0.050    0.000     0.000
            8     75    1348.73        25.000         0.340      0.300   0.020        1.000  0.050    0.000     0.000
            8     76     733.40        25.000         0.340      0.300   0.020        1.000  0.050    0.000     0.000
            9     77     799.63        25.000         0.340      0.300   0.020        1.000  0.050    0.000     0.000
            9     78     205.66        25.000         0.340      0.300   0.020        1.000  0.050    0.000     0.000
            9     79     340.36        25.000         0.340      0.300   0.020        1.000  0.050    0.000     0.000
            9     80     155.17        25.000         0.340      0.300   0.020        1.000  0.050    0.000     0.000
            9     81     698.50        25.000         0.340      0.300   0.020        1.000  0.050    0.000     0.000

         Tributary/Main Channel Characteristics
              |--------------Tributary--------------------|---------------------Main---------------------------|
          Sub  Length(km) Slope Width(m) Cond(mm/hr)     N Length(km) Slope Width(m) Depth(m) Cond(mm/hr)     N
            1       18.15 0.034    11.10      0.0000 0.014      10.79 0.006    11.10     0.55      0.0000 0.014
            2       18.55 0.013    11.93      0.0000 0.014       1.23 0.009    11.93     0.57      0.0000 0.014
            3        9.43 0.043     6.94      0.0000 0.014       7.33 0.005    21.40     0.85      0.0000 0.014
            4       16.67 0.034     7.74      0.0000 0.014      11.88 0.011    13.60     0.63      0.0000 0.014
            5        9.92 0.049     8.28      0.0000 0.014       5.64 0.002    14.79     0.66      0.0000 0.014
            6       13.73 0.041    12.74      0.0000 0.014       5.60 0.007    12.74     0.60      0.0000 0.014
            7        7.30 0.113     4.26      0.0000 0.014       4.19 0.003    22.26     0.87      0.0000 0.014
            8       11.37 0.047    10.10      0.0000 0.014       2.83 0.000    10.10     0.51      0.0000 0.014
            9        8.66 0.140     8.24      0.0000 0.014       6.72 0.000    34.66     1.17      0.0000 0.014
