1
    SWAT Mar 4 2014    VER 2012/Rev 622                                                                  0/ 0/   0      0: 0: 0

    General Input/Output section (file.cio):                                        
    3/13/2014 12:00:00 AM ARCGIS-SWAT interface AV                                  
                                                                                    
         Number of years in run:   11
         Area of watershed:      240.994 km2
1
    SWAT Mar 4 2014    VER 2012/Rev 622                                             

    General Input/Output section (file.cio):                                        
    3/13/2014 12:00:00 AM ARCGIS-SWAT interface AV                                  
                                                                                    
Annual Summary for Watershed in year    1 of simulation

UNIT                                    PERCO    TILE                           WATER     SED     NO3     NO3     NO3     NO3        N       P       P
TIME     PREC    SURQ    LATQ     GWQ    LATE       Q     SW       ET     PET   YIELD   YIELD    SURQ    LATQ    PERC    CROP  ORGANIC SOLUBLE ORGANIC TILENO3
         (mm)    (mm)    (mm)    (mm)    (mm)    (mm)    (mm)    (mm)    (mm)    (mm)    (mm)   ------------------(kg nutrient/ha)-------------------- (kg/ha)
    1  121.80   19.12    6.54    0.16   10.19    0.00  188.22    3.30    7.08   25.81   39.14    0.07    0.05    1.78    0.00    91.83    0.01   11.25    0.00
    2  182.30   44.95   54.53   43.80  108.55    0.00  188.28    5.24    9.76  143.59  186.39    0.12    0.97   13.57    0.00   124.89    0.01   15.30    0.00
    3  258.40   59.97   55.91   89.28  109.91    0.00  186.08   26.66   34.70  206.47  310.72    0.16    0.66    8.20    0.00    50.01    0.00    6.13    0.00
    4   32.10    1.55    7.58   58.53    0.76    0.00  152.75   62.71  111.76   69.64    6.30    0.01    0.05    0.04    1.07     0.15    0.00    0.02    0.00
    5  147.90   12.99   18.83   17.00    5.43    0.00  181.79   77.89  118.54   50.75    9.67    0.03    0.02    0.06   10.67     0.70    0.00    0.09    0.00
    6   83.50    4.69   13.93    7.60    0.00    0.00  138.20  114.13  157.04   27.76    1.26    0.18    0.02    0.00    7.80     0.07    0.00    0.01    0.00
    7  157.10    6.99   22.81    7.03   13.08    0.00  171.44   77.13   90.35   38.09    0.65    0.02    0.02    0.06    2.78     0.07    0.00    0.01    0.00
    8  170.40   31.44   26.55   22.96   29.53    0.00  143.85  108.19  135.21   82.12    2.29    0.07    0.06    0.40    2.63     0.30    0.00    0.04    0.00
    9  157.10   24.49   26.34   14.77   20.30    0.00  162.98   64.12   75.14   66.68    1.07    0.06    0.04    0.26    2.12     0.10    0.00    0.01    0.00
   10  125.20   18.63   22.42   30.79   32.02    0.00  178.01   32.20   35.71   73.04    0.65    0.05    0.09    0.67    1.40     0.05    0.00    0.01    0.00
   11   64.30    2.15   13.47   19.03   22.38    0.00  187.00   15.21   16.07   35.82    0.16    0.00    0.06    0.48    0.34     0.01    0.00    0.00    0.00
   12  104.10    9.90   23.29   30.04   46.80    0.00  188.24    8.44    9.99   64.44    0.36    0.03    0.22    1.68    0.00     0.03    0.00    0.00    0.00

 2000 1604.20  236.88  292.20  341.00  398.96    0.00  188.24  595.24  801.34  884.21  558.68    0.78    2.26   27.21   28.82   268.19    0.02   32.85    0.00
1
    SWAT Mar 4 2014    VER 2012/Rev 622                                             

    General Input/Output section (file.cio):                                        
    3/13/2014 12:00:00 AM ARCGIS-SWAT interface AV                                  
                                                                                    
Annual Summary for Watershed in year    2 of simulation

UNIT                                    PERCO    TILE                           WATER     SED     NO3     NO3     NO3     NO3        N       P       P
TIME     PREC    SURQ    LATQ     GWQ    LATE       Q     SW       ET     PET   YIELD   YIELD    SURQ    LATQ    PERC    CROP  ORGANIC SOLUBLE ORGANIC TILENO3
         (mm)    (mm)    (mm)    (mm)    (mm)    (mm)    (mm)    (mm)    (mm)    (mm)    (mm)   ------------------(kg nutrient/ha)-------------------- (kg/ha)
    1   50.20    4.95   14.50   38.50   28.67    0.00  186.40    8.42   12.27   59.39    0.30    0.05    0.17    1.33    0.00     0.29    0.00    0.06    0.00
    2  116.50   13.45   22.77   31.82   47.88    0.00  187.68    7.48   14.16   69.42    0.77    0.11    0.31    3.53    0.00     0.67    0.00    0.12    0.00
    3  162.00   19.77   44.45   60.91   90.81    0.00  181.44   29.26   38.00  126.92    0.94    0.10    0.50    6.47    0.00     0.87    0.00    0.15    0.00
    4  135.80   16.90   29.73   64.87   54.10    0.00  174.67   38.35   57.34  113.70    1.66    0.07    0.28    3.62    0.00     1.12    0.00    0.17    0.00
    5  101.40    8.95   12.31   31.49    3.63    0.00  171.59   78.80  120.33   55.11    1.19    0.03    0.02    0.15   11.23     0.58    0.00    0.09    0.00
    6  214.80   34.91   36.51   29.60   47.95    0.00  176.55   84.90  104.63  103.07    2.61    0.09    0.15    0.94    5.21     1.52    0.00    0.22    0.00
    7  125.70   20.63   17.88   20.58    2.76    0.00  148.40  115.25  145.30   61.07    2.48    0.06    0.02    0.01    5.51     1.07    0.00    0.15    0.00
    8  176.10   21.33   23.08    8.60    4.85    0.00  164.89  104.86  128.82   54.64    1.13    0.05    0.02    0.03    2.83     0.31    0.00    0.04    0.00
    9  288.10   76.86   51.89   41.57   81.46    0.00  183.73   49.57   54.25  171.83    2.67    0.19    0.22    1.52    2.22     0.94    0.00    0.12    0.00
   10   46.40    3.12    7.58   29.28    1.40    0.00  180.00   39.36   45.87   41.71    0.20    0.01    0.01    0.01    1.37     0.03    0.00    0.00    0.00
   11  132.00    8.83   19.55   17.63   45.56    0.00  188.29   10.29   11.32   47.50    0.42    0.02    0.12    1.21    0.00     0.09    0.00    0.01    0.00
   12  187.40   52.14   28.59   50.11   50.09    0.00  188.28    4.71    5.02  132.55    2.55    0.16    0.24    1.69    0.00     0.95    0.00    0.12    0.00

 2001 1736.40  281.82  308.85  424.96  459.15    0.00  188.28  571.25  737.33 1036.92   16.91    0.95    2.07   20.52   28.36     8.44    0.02    1.27    0.00
1
    SWAT Mar 4 2014    VER 2012/Rev 622                                             

    General Input/Output section (file.cio):                                        
    3/13/2014 12:00:00 AM ARCGIS-SWAT interface AV                                  
                                                                                    
Annual Summary for Watershed in year    3 of simulation

UNIT                                    PERCO    TILE                           WATER     SED     NO3     NO3     NO3     NO3        N       P       P
TIME     PREC    SURQ    LATQ     GWQ    LATE       Q     SW       ET     PET   YIELD   YIELD    SURQ    LATQ    PERC    CROP  ORGANIC SOLUBLE ORGANIC TILENO3
         (mm)    (mm)    (mm)    (mm)    (mm)    (mm)    (mm)    (mm)    (mm)    (mm)    (mm)   ------------------(kg nutrient/ha)-------------------- (kg/ha)
    1   86.90   39.17   23.65   32.91   47.97    0.00  188.28    3.39    6.54   97.51    1.13    0.26    0.28    2.99    0.00     1.99    0.01    0.33    0.00
    2  129.10   38.16   36.59   53.95   79.14    0.00  188.23    9.70   15.17  130.48    2.36    0.21    0.38    5.18    0.00     2.09    0.01    0.32    0.00
    3  200.10   82.68   36.12   64.27   51.35    0.00  178.96   36.40   67.76  185.39    5.12    0.49    0.33    3.61    0.00     6.52    0.02    0.92    0.00
    4   71.80    6.34   10.19   36.49    6.64    0.00  181.82   45.84   89.11   55.38    0.47    0.03    0.05    0.61    0.02     0.32    0.00    0.05    0.00
    5   81.00    3.56   12.04   13.91    0.78    0.00  168.26   81.32  133.22   31.62    0.46    0.01    0.02    0.01   14.88     0.18    0.00    0.03    0.00
    6  121.70   19.71   16.41    8.01    6.89    0.00  136.31  111.87  155.91   45.78    1.34    0.05    0.03    0.08    8.27     0.82    0.00    0.11    0.00
    7  102.30    3.35   14.98    3.26    0.00    0.00  121.50  101.08  130.80   22.92    0.29    0.01    0.02    0.00    3.66     0.07    0.00    0.01    0.00
    8  332.30  117.74   42.84   17.62   32.98    0.00  148.99   99.87  117.92  179.32    4.40    0.28    0.11    0.58    3.90     3.35    0.01    0.44    0.00
    9  171.40   23.05   27.10   12.98   26.59    0.00  180.37   56.63   67.97   64.16    1.45    0.06    0.05    0.42    1.71     0.42    0.00    0.06    0.00
   10  179.50   33.40   33.46   40.16   63.11    0.00  187.58   31.93   35.07  108.19    1.72    0.08    0.19    1.34    2.18     0.53    0.00    0.07    0.00
   11  176.30   37.16   44.95   70.59   77.62    0.00  185.33   15.59   16.69  154.39    1.92    0.11    0.29    1.77    0.54     0.67    0.00    0.09    0.00
   12  153.50   35.88   29.32   48.04   63.73    0.00  188.09   10.40   11.96  115.30    1.15    0.13    0.21    2.01    0.00     0.60    0.00    0.08    0.00

 2002 1805.90  440.21  327.64  402.20  456.80    0.00  188.09  604.03  848.11 1190.44   21.81    1.72    1.95   18.60   35.16    17.56    0.06    2.50    0.00
1
    SWAT Mar 4 2014    VER 2012/Rev 622                                             

    General Input/Output section (file.cio):                                        
    3/13/2014 12:00:00 AM ARCGIS-SWAT interface AV                                  
                                                                                    
Annual Summary for Watershed in year    4 of simulation

UNIT                                    PERCO    TILE                           WATER     SED     NO3     NO3     NO3     NO3        N       P       P
TIME     PREC    SURQ    LATQ     GWQ    LATE       Q     SW       ET     PET   YIELD   YIELD    SURQ    LATQ    PERC    CROP  ORGANIC SOLUBLE ORGANIC TILENO3
         (mm)    (mm)    (mm)    (mm)    (mm)    (mm)    (mm)    (mm)    (mm)    (mm)    (mm)   ------------------(kg nutrient/ha)-------------------- (kg/ha)
    1  148.40   19.33   30.76   60.63   60.06    0.00  188.28    2.46    4.41  113.04    0.81    0.22    0.28    3.10    0.00     1.04    0.01    0.20    0.00
    2   34.80    0.00    2.58   39.06    0.00    0.00  184.79    5.68   13.03   43.83    0.00    0.00    0.03    0.00    0.00     0.00    0.00    0.00    0.00
    3   58.30   27.98   20.07   28.29   44.87    0.00  187.49   22.02   38.81   78.56    0.72    0.29    0.27    4.30    0.00     0.93    0.01    0.15    0.00
    4   47.20    1.47   10.09   27.27    9.97    0.00  169.38   47.92   87.00   40.84    0.11    0.02    0.11    0.97    0.00     0.10    0.00    0.02    0.00
    5  122.90   13.31   17.91   13.89   14.36    0.00  167.21   78.82  121.55   46.89    1.39    0.04    0.07    1.30   16.67     1.29    0.00    0.19    0.00
    6   76.80    5.49   11.04    8.00    0.00    0.00  103.00  129.47  186.97   25.97    0.59    0.28    0.02    0.00   10.41     0.27    0.00    0.04    0.00
    7  173.70   11.00   23.03    2.49    0.00    0.00  123.93  114.58  150.13   37.66    1.03    0.03    0.03    0.00    3.21     0.38    0.00    0.06    0.00
    8   80.50    1.34   11.38    0.72    0.00    0.00   83.73  109.90  149.47   14.31    0.12    0.00    0.02    0.00    3.38     0.03    0.00    0.01    0.00
    9  140.20   14.00   25.95    1.67    3.57    0.00  129.36   51.98   81.23   42.25    0.75    0.04    0.03    0.05    1.20     0.41    0.00    0.06    0.00
   10  153.50   28.16   25.34   19.29   32.28    0.00  171.61   19.73   26.47   73.43    0.90    0.08    0.04    0.77    0.06     0.57    0.00    0.08    0.00
   11   38.90    2.76    6.65   13.97    9.30    0.00  174.16   16.97   22.18   24.09    0.18    0.01    0.02    0.31    0.01     0.05    0.00    0.01    0.00
   12   68.40    2.39   10.38   14.35   21.49    0.00  180.57    7.89   10.65   27.83    0.07    0.01    0.06    0.98    0.00     0.02    0.00    0.00    0.00

 2003 1143.60  127.21  195.17  229.64  195.91    0.00  180.57  607.43  891.91  568.70    6.68    1.03    0.98   11.77   34.94     5.10    0.02    0.82    0.00
1
    SWAT Mar 4 2014    VER 2012/Rev 622                                             

    General Input/Output section (file.cio):                                        
    3/13/2014 12:00:00 AM ARCGIS-SWAT interface AV                                  
                                                                                    
Annual Summary for Watershed in year    5 of simulation

UNIT                                    PERCO    TILE                           WATER     SED     NO3     NO3     NO3     NO3        N       P       P
TIME     PREC    SURQ    LATQ     GWQ    LATE       Q     SW       ET     PET   YIELD   YIELD    SURQ    LATQ    PERC    CROP  ORGANIC SOLUBLE ORGANIC TILENO3
         (mm)    (mm)    (mm)    (mm)    (mm)    (mm)    (mm)    (mm)    (mm)    (mm)    (mm)   ------------------(kg nutrient/ha)-------------------- (kg/ha)
    1  174.60   22.48   26.30   36.65   56.12    0.00  187.72    1.66    2.90   86.32    0.81    0.18    0.25    3.49    0.00     1.13    0.01    0.21    0.00
    2   96.10   17.64   25.50   45.81   53.55    0.00  188.07    6.80   12.80   90.17    0.57    0.29    0.37    4.25    0.00     0.80    0.01    0.14    0.00
    3   88.80   51.18   22.52   40.40   38.70    0.00  187.37   23.42   44.21  115.65    3.05    0.23    0.29    3.67    0.00     4.17    0.01    0.61    0.00
    4   71.10    6.73   15.44   32.73   21.06    0.00  170.06   55.63   99.58   56.53    0.61    0.07    0.16    2.05    0.00     0.49    0.00    0.07    0.00
    5  152.50   18.45   22.20   19.56   23.65    0.00  186.20   67.98   95.41   61.78    1.95    0.08    0.13    2.57    2.63     1.82    0.01    0.26    0.00
    6  236.70   50.47   40.57   43.10   55.52    0.00  174.91   95.77  129.20  135.78    5.01    0.16    0.36    4.36   13.58     7.91    0.01    1.09    0.00
    7  208.10   34.08   34.20   30.93   41.83    0.00  166.08  102.63  118.83  100.92    2.83    0.42    0.12    0.94    7.32     2.00    0.00    0.28    0.00
    8  139.80   14.63   19.35   23.61    3.26    0.00  174.06   92.92  111.58   59.30    0.92    0.03    0.03    0.02    3.31     0.36    0.00    0.05    0.00
    9  173.00   30.18   26.89   13.56   31.41    0.00  187.06   64.97   76.00   72.07    1.26    0.08    0.06    0.51    2.27     0.73    0.00    0.10    0.00
   10   71.40    7.93   15.23   29.94   18.74    0.00  184.98   32.20   35.54   54.56    0.46    0.02    0.08    0.38    1.48     0.17    0.00    0.02    0.00
   11   95.60    7.91   23.24   26.31   43.62    0.00  186.58   15.98   16.96   58.85    0.45    0.02    0.17    1.20    0.01     0.17    0.00    0.02    0.00
   12   25.30    1.20    4.05   22.57    6.56    0.00  188.29   10.67   12.99   29.26    0.07    0.01    0.02    0.24    0.00     0.01    0.00    0.00    0.00

 2004 1533.00  262.88  275.49  365.17  394.03    0.00  188.29  570.63  756.00  921.19   17.99    1.59    2.04   23.68   30.60    19.77    0.05    2.86    0.00
1
    SWAT Mar 4 2014    VER 2012/Rev 622                                             

    General Input/Output section (file.cio):                                        
    3/13/2014 12:00:00 AM ARCGIS-SWAT interface AV                                  
                                                                                    
Annual Summary for Watershed in year    6 of simulation

UNIT                                    PERCO    TILE                           WATER     SED     NO3     NO3     NO3     NO3        N       P       P
TIME     PREC    SURQ    LATQ     GWQ    LATE       Q     SW       ET     PET   YIELD   YIELD    SURQ    LATQ    PERC    CROP  ORGANIC SOLUBLE ORGANIC TILENO3
         (mm)    (mm)    (mm)    (mm)    (mm)    (mm)    (mm)    (mm)    (mm)    (mm)    (mm)   ------------------(kg nutrient/ha)-------------------- (kg/ha)
    1  153.90   19.94   26.56   34.11   52.07    0.00  187.84    6.62    9.33   82.04    1.31    0.17    0.31    2.81    0.00     2.02    0.01    0.32    0.00
    2  163.50   11.56   12.10   30.64   23.84    0.00  186.80    3.79    7.41   55.70    0.60    0.15    0.17    1.85    0.00     1.00    0.00    0.15    0.00
    3   78.90   90.66   37.92   31.48   79.51    0.00  183.22   18.10   33.26  161.60    4.01    0.83    0.50    6.96    0.00     8.39    0.02    1.17    0.00
    4  161.80   38.18   29.89   53.77   39.69    0.00  181.37   54.08   94.00  123.62    3.28    0.19    0.26    3.32    0.00     5.10    0.01    0.70    0.00
    5  135.10   19.07   23.14   47.16   29.57    0.00  167.93   75.47  116.36   91.45    2.49    0.06    0.18    2.40    9.36     2.79    0.00    0.38    0.00
    6   98.00    4.99   14.03   18.58    2.61    0.00  155.92   90.62  120.72   39.52    0.67    0.04    0.02    0.03    7.97     0.29    0.00    0.04    0.00
    7  261.00   66.60   39.94   30.79   46.85    0.00  148.21  108.61  129.40  139.13    4.36    0.33    0.12    1.01    7.52     5.38    0.01    0.73    0.00
    8  275.10   82.77   39.18   27.17   38.08    0.00  169.83   84.68   97.20  150.85    1.93    0.21    0.11    0.58    2.94     2.05    0.01    0.27    0.00
    9   93.90    8.73   12.52   19.97    0.42    0.00  170.15   70.66   86.87   42.84    0.52    0.02    0.01    0.00    2.28     0.17    0.00    0.02    0.00
   10   20.40    0.27    5.03    7.44    1.96    0.00  146.93   40.16   49.00   14.14    0.02    0.00    0.01    0.02    1.09     0.00    0.00    0.00    0.00
   11   78.00    1.03    6.54    2.15    0.00    0.00  165.29   14.65   16.86   10.77    0.07    0.00    0.01    0.00    0.02     0.01    0.00    0.00    0.00
   12  164.30   18.64   17.34   13.50   31.25    0.00  186.71    6.12    7.58   50.38    1.21    0.05    0.07    0.97    0.00     0.53    0.00    0.07    0.00

 2005 1683.90  362.44  264.19  316.75  345.86    0.00  186.71  573.56  767.99  962.02   20.47    2.05    1.77   19.93   31.19    27.74    0.07    3.87    0.00
1
    SWAT Mar 4 2014    VER 2012/Rev 622                                             

    General Input/Output section (file.cio):                                        
    3/13/2014 12:00:00 AM ARCGIS-SWAT interface AV                                  
                                                                                    
Annual Summary for Watershed in year    7 of simulation

UNIT                                    PERCO    TILE                           WATER     SED     NO3     NO3     NO3     NO3        N       P       P
TIME     PREC    SURQ    LATQ     GWQ    LATE       Q     SW       ET     PET   YIELD   YIELD    SURQ    LATQ    PERC    CROP  ORGANIC SOLUBLE ORGANIC TILENO3
         (mm)    (mm)    (mm)    (mm)    (mm)    (mm)    (mm)    (mm)    (mm)    (mm)    (mm)   ------------------(kg nutrient/ha)-------------------- (kg/ha)
    1  111.20    4.11    9.07   20.10   18.94    0.00  186.59    4.02    8.36   34.22    0.24    0.14    0.12    1.08    0.00     0.31    0.00    0.06    0.00
    2  110.30    3.65    6.47   14.12   12.89    0.00  187.49    4.37    8.47   25.07    0.26    0.11    0.12    1.19    0.00     0.32    0.00    0.05    0.00
    3  166.70   64.54   33.36   22.29   84.29    0.00  188.30    7.96   15.41  121.09    3.98    0.36    0.51    8.29    0.00     7.07    0.02    1.02    0.00
    4  133.90   95.39   77.14  110.91  134.56    0.00  185.26   35.59   59.32  285.20    7.16    0.37    0.77    8.58    0.00    11.42    0.02    1.58    0.00
    5  176.20   31.42   28.37   66.42   42.27    0.00  186.76   66.90  111.03  128.76    3.11    0.09    0.16    2.16    3.78     3.43    0.01    0.47    0.00
    6  128.90   11.06   26.81   54.39   24.81    0.00  165.43   91.27  135.55   94.92    0.98    0.03    0.14    1.13    9.88     0.62    0.00    0.09    0.00
    7  108.80    7.48   15.25   17.70    1.68    0.00  127.33  124.46  167.43   42.91    0.62    0.24    0.02    0.00    8.49     0.31    0.00    0.04    0.00
    8  273.70   51.86   43.22   20.58   41.26    0.00  185.35   69.77   78.98  117.73    3.57    0.12    0.06    0.23    2.82     2.24    0.01    0.30    0.00
    9  107.00   35.03   15.94   20.66    6.66    0.00  159.49   77.18   91.15   73.42    2.22    0.08    0.02    0.08    2.42     1.17    0.00    0.16    0.00
   10   68.60    6.39    9.13    7.57    0.73    0.00  171.86   38.13   45.31   24.64    0.36    0.01    0.01    0.00    1.34     0.09    0.00    0.01    0.00
   11  143.80   25.32   30.81   27.52   54.53    0.00  182.40   17.17   18.63   84.98    1.29    0.07    0.15    1.15    0.00     0.66    0.00    0.09    0.00
   12   48.60    5.34    9.46   27.38   13.94    0.00  186.76   13.97   16.31   43.64    0.17    0.02    0.05    0.41    0.00     0.05    0.00    0.01    0.00

 2006 1577.70  341.57  305.04  409.63  436.57    0.00  186.76  550.79  755.94 1076.60   23.95    1.64    2.12   24.31   28.74    27.71    0.07    3.88    0.00
1
    SWAT Mar 4 2014    VER 2012/Rev 622                                             

    General Input/Output section (file.cio):                                        
    3/13/2014 12:00:00 AM ARCGIS-SWAT interface AV                                  
                                                                                    
Annual Summary for Watershed in year    8 of simulation

UNIT                                    PERCO    TILE                           WATER     SED     NO3     NO3     NO3     NO3        N       P       P
TIME     PREC    SURQ    LATQ     GWQ    LATE       Q     SW       ET     PET   YIELD   YIELD    SURQ    LATQ    PERC    CROP  ORGANIC SOLUBLE ORGANIC TILENO3
         (mm)    (mm)    (mm)    (mm)    (mm)    (mm)    (mm)    (mm)    (mm)    (mm)    (mm)   ------------------(kg nutrient/ha)-------------------- (kg/ha)
    1  104.30    7.37   23.30   32.34   50.78    0.00  188.28    7.46   10.58   64.47    0.35    0.05    0.23    2.43    0.00     0.48    0.00    0.08    0.00
    2  147.50   19.68   33.79   46.61   75.00    0.00  188.03   17.49   27.12  101.60    1.15    0.15    0.34    4.78    0.00     1.70    0.01    0.27    0.00
    3   92.40    6.36   23.58   54.67   34.76    0.00  181.63   36.50   58.99   86.64    0.35    0.06    0.21    2.33    0.00     0.37    0.00    0.06    0.00
    4   10.90    0.00    1.44   20.70    0.00    0.00  138.33   58.11  122.22   24.06    0.00    0.00    0.02    0.00    5.40     0.00    0.00    0.00    0.00
    5  231.90   61.38   29.98   14.61   16.92    0.00  171.47   83.04  124.82  107.65    4.56    0.19    0.09    0.95   10.53     8.33    0.01    1.16    0.00
    6  128.40   11.22   18.59    7.48    3.23    0.00  168.82   98.44  124.65   38.65    0.95    0.36    0.03    0.02    7.26     0.50    0.00    0.07    0.00
    7  195.90   26.51   34.29   27.56   43.34    0.00  147.20  110.00  132.27   89.66    1.85    0.07    0.11    0.92    4.64     1.18    0.00    0.16    0.00
    8  177.10   35.15   23.66   14.02    6.13    0.00  169.41   85.74  102.18   74.10    2.12    0.08    0.03    0.08    2.98     1.22    0.00    0.16    0.00
    9  267.20   79.23   47.33   47.11   76.54    0.00  168.98   55.55   62.34  175.00    3.94    0.21    0.25    1.54    2.31     3.50    0.01    0.46    0.00
   10  100.40   11.50   17.75   30.08   21.78    0.00  183.80   31.42   35.56   60.91    0.42    0.03    0.06    0.48    0.27     0.18    0.00    0.02    0.00
   11  194.30   42.07   41.33   51.59   85.76    0.00  188.29    8.79    9.39  136.65    1.50    0.12    0.31    2.63    0.00     1.30    0.01    0.17    0.00
   12   99.50    8.14   26.86   66.36   51.60    0.00  188.29    5.30    7.21  103.55    0.28    0.02    0.18    1.56    0.00     0.09    0.00    0.01    0.00

 2007 1749.80  308.62  321.90  413.13  465.86    0.00  188.29  597.83  817.33 1062.94   17.47    1.32    1.86   17.73   33.39    18.84    0.05    2.63    0.00
1
    SWAT Mar 4 2014    VER 2012/Rev 622                                             

    General Input/Output section (file.cio):                                        
    3/13/2014 12:00:00 AM ARCGIS-SWAT interface AV                                  
                                                                                    
Annual Summary for Watershed in year    9 of simulation

UNIT                                    PERCO    TILE                           WATER     SED     NO3     NO3     NO3     NO3        N       P       P
TIME     PREC    SURQ    LATQ     GWQ    LATE       Q     SW       ET     PET   YIELD   YIELD    SURQ    LATQ    PERC    CROP  ORGANIC SOLUBLE ORGANIC TILENO3
         (mm)    (mm)    (mm)    (mm)    (mm)    (mm)    (mm)    (mm)    (mm)    (mm)    (mm)   ------------------(kg nutrient/ha)-------------------- (kg/ha)
    1   72.60    4.80   20.43   41.67   44.09    0.00  187.79    5.91    9.05   69.19    0.19    0.06    0.21    2.44    0.00     0.26    0.00    0.04    0.00
    2   56.30    8.38    8.23   30.33   16.78    0.00  188.15   18.69   30.04   49.02    0.40    0.05    0.09    1.37    0.00     0.50    0.00    0.08    0.00
    3  187.50   42.23   41.53   46.89   81.10    0.00  185.50   18.87   25.51  132.82    2.85    0.15    0.47    6.99    0.00     4.41    0.01    0.64    0.00
    4  145.60   21.99   26.92   47.96   39.81    0.00  183.44   55.66   80.76   99.13    2.31    0.11    0.23    3.40    0.05     2.72    0.01    0.39    0.00
    5   41.10    2.98    6.95   26.59    0.00    0.00  141.66   79.53  147.47   38.78    0.54    0.01    0.02    0.00   13.61     0.39    0.00    0.06    0.00
    6  129.80   10.16   17.19    7.82    0.36    0.00  151.24   91.26  118.87   36.98    0.83    0.04    0.02    0.00    7.20     0.50    0.00    0.07    0.00
    7  121.70    8.49   18.17    4.65    8.04    0.00  139.26   99.64  121.78   32.75    0.73    0.02    0.03    0.07    5.14     0.36    0.00    0.05    0.00
    8  122.70   12.42   17.54    5.18    1.85    0.00  133.76   96.35  115.08   36.29    0.52    0.03    0.02    0.02    4.37     0.27    0.00    0.04    0.00
    9  101.90    8.84   14.68    2.08    0.93    0.00  153.18   56.09   69.50   26.46    0.62    0.02    0.02    0.01    1.31     0.22    0.00    0.03    0.00
   10   68.70    5.60   10.87    4.54    6.91    0.00  166.54   30.91   35.33   21.71    0.33    0.01    0.01    0.10    1.85     0.13    0.00    0.02    0.00
   11   86.20   13.90   12.56    7.17   17.80    0.00  176.88   17.78   20.05   34.21    0.53    0.03    0.04    0.40    0.57     0.32    0.00    0.04    0.00
   12  124.10   33.13   25.46   27.58   50.35    0.00  186.96    8.49    9.63   86.87    1.12    0.10    0.16    1.68    0.00     0.92    0.01    0.12    0.00

 2008 1258.20  172.92  220.55  252.46  268.02    0.00  186.96  579.17  783.09  664.21   10.96    0.63    1.33   16.48   34.10    11.00    0.04    1.59    0.00
1
    SWAT Mar 4 2014    VER 2012/Rev 622                                             

    General Input/Output section (file.cio):                                        
    3/13/2014 12:00:00 AM ARCGIS-SWAT interface AV                                  
                                                                                    
Annual Summary for Watershed in year   10 of simulation

UNIT                                    PERCO    TILE                           WATER     SED     NO3     NO3     NO3     NO3        N       P       P
TIME     PREC    SURQ    LATQ     GWQ    LATE       Q     SW       ET     PET   YIELD   YIELD    SURQ    LATQ    PERC    CROP  ORGANIC SOLUBLE ORGANIC TILENO3
         (mm)    (mm)    (mm)    (mm)    (mm)    (mm)    (mm)    (mm)    (mm)    (mm)    (mm)   ------------------(kg nutrient/ha)-------------------- (kg/ha)
    1   31.10    0.33    3.41   25.48    6.40    0.00  187.13    2.91    6.17   30.17    0.03    0.04    0.06    0.42    0.00     0.04    0.00    0.01    0.00
    2  205.40   28.18   19.27   18.06   46.00    0.00  188.28    4.85    9.42   66.38    1.18    0.25    0.30    4.33    0.00     2.25    0.01    0.33    0.00
    3  233.70   52.84   63.41   76.61  128.90    0.00  188.28    8.15   15.07  194.27    3.43    0.20    0.76    9.71    0.00     4.65    0.02    0.66    0.00
    4   31.40   27.74   23.18   81.19   34.93    0.00  171.51   48.90  101.10  134.36    1.42    0.12    0.21    2.07    0.00     3.20    0.01    0.44    0.00
    5  147.70   12.05   23.04   33.65   28.15    0.00  183.83   68.57   90.10   71.14    1.47    0.04    0.08    1.48   10.86     1.42    0.00    0.20    0.00
    6  324.50   90.51   52.83   41.17   82.73    0.00  185.26   84.27   98.72  186.71    6.43    0.25    0.24    1.45    6.23     8.95    0.01    1.21    0.00
    7  183.30   41.14   30.50   57.11   26.37    0.00  168.04  102.98  119.51  131.22    3.56    0.43    0.09    0.40    7.27     3.13    0.01    0.43    0.00
    8  184.70   41.23   25.37   28.99   16.08    0.00  168.53   97.59  112.57   97.99    2.43    0.10    0.04    0.15    4.55     1.60    0.01    0.21    0.00
    9   89.20   11.07   14.67   16.10   11.81    0.00  151.48   69.35   81.10   43.83    0.68    0.03    0.02    0.11    2.14     0.26    0.00    0.03    0.00
   10  142.80   21.42   26.13   19.97   35.05    0.00  183.11   22.61   25.50   69.27    0.69    0.06    0.09    0.67    0.45     0.45    0.00    0.06    0.00
   11  103.20   15.72   22.55   31.81   43.05    0.00  186.22   13.98   14.73   71.73    0.73    0.04    0.15    1.27    0.00     0.43    0.00    0.06    0.00
   12  120.90   22.68   27.46   46.19   55.72    0.00  188.29    6.40    7.06   98.16    0.64    0.07    0.20    1.92    0.00     0.44    0.00    0.06    0.00

 2009 1797.90  364.93  331.83  476.34  515.18    0.00  188.29  530.54  681.05 1195.24   22.68    1.63    2.24   23.99   31.51    26.81    0.07    3.69    0.00
1
    SWAT Mar 4 2014    VER 2012/Rev 622                                             

    General Input/Output section (file.cio):                                        
    3/13/2014 12:00:00 AM ARCGIS-SWAT interface AV                                  
                                                                                    
Annual Summary for Watershed in year   11 of simulation

UNIT                                    PERCO    TILE                           WATER     SED     NO3     NO3     NO3     NO3        N       P       P
TIME     PREC    SURQ    LATQ     GWQ    LATE       Q     SW       ET     PET   YIELD   YIELD    SURQ    LATQ    PERC    CROP  ORGANIC SOLUBLE ORGANIC TILENO3
         (mm)    (mm)    (mm)    (mm)    (mm)    (mm)    (mm)    (mm)    (mm)    (mm)    (mm)   ------------------(kg nutrient/ha)-------------------- (kg/ha)
    1   74.10    1.29    5.65   32.07    8.53    0.00  187.57    3.66    7.52   40.92    0.10    0.01    0.06    0.36    0.00     0.14    0.00    0.02    0.00
    2   87.50    1.81    4.77   10.33   12.01    0.00  188.28    4.38    8.82   18.40    0.10    0.08    0.09    1.18    0.00     0.14    0.00    0.02    0.00
    3  126.20   68.69   48.99   42.21   99.07    0.00  187.97   17.44   27.46  161.47    4.17    0.35    0.58    8.81    0.00     7.85    0.02    1.10    0.00
    4   66.40    6.45   12.33   51.50   11.96    0.00  169.23   57.31   99.08   72.19    0.45    0.05    0.10    0.99    0.00     0.71    0.00    0.10    0.00
    5  195.80   29.97   29.38   28.23   51.50    0.00  187.25   55.22   66.04   89.49    3.21    0.10    0.22    4.43    3.28     4.55    0.01    0.62    0.00
    6  212.30   67.78   37.78   53.27   43.91    0.00  154.25   97.18  136.03  160.87    9.00    0.18    0.25    2.20   12.26    16.92    0.01    2.23    0.00
    7  193.50   29.63   26.02   21.05    8.17    0.00  174.05  104.93  136.80   78.73    2.21    0.17    0.04    0.03    7.63     1.57    0.00    0.22    0.00
    8  230.10   43.20   35.13   26.06   46.95    0.00  187.04   82.51   93.10  106.22    2.41    0.11    0.08    0.58    3.67     1.44    0.01    0.19    0.00
    9   53.40    1.37   11.66   22.69    0.00    0.00  176.94   55.75   63.28   37.39    0.08    0.00    0.03    0.00    1.27     0.02    0.00    0.00    0.00
   10   73.70    6.86   12.90   10.51   15.87    0.00  180.42   33.56   38.46   31.74    0.48    0.02    0.03    0.29    0.58     0.13    0.00    0.02    0.00
   11   57.50    2.94    7.30   12.53    8.05    0.00  186.72   15.47   17.32   23.98    0.12    0.01    0.02    0.17    1.06     0.04    0.00    0.00    0.00
   12   84.00    2.32    7.43   14.49   15.41    0.00  187.59    3.17    4.16   25.34    0.11    0.01    0.05    0.51    0.00     0.03    0.00    0.00    0.00

 2010 1454.50  262.30  239.33  324.94  321.45    0.00  187.59  530.58  698.07  846.74   22.44    1.08    1.55   19.54   29.73    33.53    0.06    4.53    0.00
1
    SWAT Mar 4 2014    VER 2012/Rev 622                                             

    General Input/Output section (file.cio):                                        
    3/13/2014 12:00:00 AM ARCGIS-SWAT interface AV                                  
                                                                                    
    FINAL VALUES

1
    SWAT Mar 4 2014    VER 2012/Rev 622                                             

    General Input/Output section (file.cio):                                        
    3/13/2014 12:00:00 AM ARCGIS-SWAT interface AV                                  
                                                                                    
                                            Average Plant Values (kg/ha)

  HRU       1 SUB   1 PAST  Yld =     7.5 BIOM =   4993.5
  HRU       2 SUB   1 PAST  Yld =     7.4 BIOM =   4858.6
  HRU       3 SUB   1 PAST  Yld =     7.6 BIOM =   4854.0
  HRU       4 SUB   1 PAST  Yld =     9.1 BIOM =   5228.0
  HRU       5 SUB   1 FRST  Yld =  2681.0 BIOM =   9301.6
  HRU       6 SUB   1 FRST  Yld =  2682.2 BIOM =   9305.5
  HRU       7 SUB   1 FRST  Yld =  2685.0 BIOM =   9315.1
  HRU       8 SUB   1 AGRL  Yld =  3290.4 BIOM =  12477.1
  HRU       9 SUB   1 AGRL  Yld =  3286.8 BIOM =  12466.4
  HRU      10 SUB   1 AGRL  Yld =  3283.4 BIOM =  12455.5
  HRU      11 SUB   1 AGRL  Yld =  3270.4 BIOM =  12408.8
  HRU      12 SUB   2 PAST  Yld =     7.3 BIOM =   5426.8
  HRU      13 SUB   2 PAST  Yld =     7.0 BIOM =   5320.7
  HRU      14 SUB   2 PAST  Yld =     9.0 BIOM =   6115.4
  HRU      15 SUB   2 PAST  Yld =     7.0 BIOM =   5353.1
  HRU      16 SUB   2 PAST  Yld =     8.0 BIOM =   6580.8
  HRU      17 SUB   2 PAST  Yld =     9.4 BIOM =   7199.1
  HRU      18 SUB   2 PAST  Yld =     8.0 BIOM =   6542.5
  HRU      19 SUB   2 PAST  Yld =     8.2 BIOM =   6619.6
  HRU      20 SUB   2 FRST  Yld =  2685.6 BIOM =   9317.5
  HRU      21 SUB   2 FRST  Yld =  2681.9 BIOM =   9304.6
  HRU      22 SUB   2 FRST  Yld =  2679.4 BIOM =   9295.7
  HRU      23 SUB   2 FRST  Yld =  2685.6 BIOM =   9317.5
  HRU      24 SUB   2 FRST  Yld =  2685.6 BIOM =   9317.5
  HRU      25 SUB   2 FRST  Yld =  2685.6 BIOM =   9317.5
  HRU      26 SUB   2 FRST  Yld =  2685.6 BIOM =   9317.5
  HRU      27 SUB   2 FRST  Yld =  2685.6 BIOM =   9317.5
  HRU      28 SUB   3 PAST  Yld =     7.0 BIOM =   5333.1
  HRU      29 SUB   3 PAST  Yld =     7.4 BIOM =   5438.2
  HRU      30 SUB   3 PAST  Yld =     9.0 BIOM =   6101.8
  HRU      31 SUB   3 PAST  Yld =     7.0 BIOM =   5360.7
  HRU      32 SUB   3 PAST  Yld =     7.5 BIOM =   5009.8
  HRU      33 SUB   3 PAST  Yld =     7.4 BIOM =   4874.2
  HRU      34 SUB   3 PAST  Yld =     9.2 BIOM =   5262.5
  HRU      35 SUB   3 PAST  Yld =     7.7 BIOM =   4877.1
  HRU      36 SUB   3 FRST  Yld =  2677.2 BIOM =   9288.3
  HRU      37 SUB   3 FRST  Yld =  2685.6 BIOM =   9317.5
  HRU      38 SUB   3 FRST  Yld =  2681.9 BIOM =   9304.6
  HRU      39 SUB   3 FRST  Yld =  2685.1 BIOM =   9315.6
  HRU      40 SUB   3 FRST  Yld =  2685.0 BIOM =   9315.2
  HRU      41 SUB   3 FRST  Yld =  2679.6 BIOM =   9296.5
  HRU      42 SUB   3 FRST  Yld =  2681.0 BIOM =   9301.6
  HRU      43 SUB   4 PAST  Yld =     6.9 BIOM =   5345.4
  HRU      44 SUB   4 PAST  Yld =     7.3 BIOM =   5422.1
  HRU      45 SUB   4 PAST  Yld =     9.0 BIOM =   6115.7
  HRU      46 SUB   4 PAST  Yld =     6.9 BIOM =   5314.6
  HRU      47 SUB   4 FRST  Yld =  2687.1 BIOM =   9322.5
  HRU      48 SUB   4 FRST  Yld =  2678.5 BIOM =   9292.7
  HRU      49 SUB   4 FRST  Yld =  2683.5 BIOM =   9310.0
  HRU      50 SUB   5 PAST  Yld =     7.5 BIOM =   4868.2
  HRU      51 SUB   5 PAST  Yld =     7.5 BIOM =   5013.7
  HRU      52 SUB   5 PAST  Yld =     7.7 BIOM =   4861.1
  HRU      53 SUB   5 PAST  Yld =     9.2 BIOM =   5230.6
  HRU      54 SUB   5 FRST  Yld =  2685.0 BIOM =   9315.4
  HRU      55 SUB   5 FRST  Yld =  2682.8 BIOM =   9307.7
  HRU      56 SUB   5 WATR  Yld =     0.0 BIOM =      0.0
  HRU      57 SUB   6 PAST  Yld =     9.1 BIOM =   5209.0
  HRU      58 SUB   6 PAST  Yld =     7.6 BIOM =   4841.2
  HRU      59 SUB   6 PAST  Yld =     7.4 BIOM =   4856.0
  HRU      60 SUB   6 PAST  Yld =     7.5 BIOM =   4991.6
  HRU      61 SUB   6 FRST  Yld =  2682.5 BIOM =   9306.6
  HRU      62 SUB   6 FRST  Yld =  2685.0 BIOM =   9315.3
  HRU      63 SUB   6 FRST  Yld =  2681.0 BIOM =   9301.4
  HRU      64 SUB   7 PAST  Yld =     9.2 BIOM =   5295.8
  HRU      65 SUB   7 PAST  Yld =     7.5 BIOM =   5019.7
  HRU      66 SUB   7 PAST  Yld =     7.4 BIOM =   4890.7
  HRU      67 SUB   7 PAST  Yld =     7.7 BIOM =   4899.8
  HRU      68 SUB   7 FRST  Yld =  2682.6 BIOM =   9307.1
  HRU      69 SUB   7 FRST  Yld =  2686.4 BIOM =   9320.3
  HRU      70 SUB   7 FRST  Yld =  2655.5 BIOM =   9213.1
  HRU      71 SUB   8 PAST  Yld =     6.9 BIOM =   5344.6
  HRU      72 SUB   8 PAST  Yld =     7.0 BIOM =   5313.2
  HRU      73 SUB   8 PAST  Yld =     7.3 BIOM =   5418.6
  HRU      74 SUB   8 PAST  Yld =     9.0 BIOM =   6123.7
  HRU      75 SUB   8 FRST  Yld =  2672.2 BIOM =   9270.9
  HRU      76 SUB   8 FRST  Yld =  2687.1 BIOM =   9322.5
  HRU      77 SUB   9 FRST  Yld =  2663.0 BIOM =   9238.9
  HRU      78 SUB   9 FRST  Yld =  2687.1 BIOM =   9322.5
  HRU      79 SUB   9 FRST  Yld =  2678.4 BIOM =   9292.5
  HRU      80 SUB   9 FRST  Yld =  2686.6 BIOM =   9321.0
  HRU      81 SUB   9 WATR  Yld =     0.0 BIOM =      0.0

    HRU STATISTICS

                AVE ANNUAL VALUES

   HRU  SUB  SOIL       AREAkm2    CN     AWCmm   USLE_LS  IRRmm  AUTONkh AUTOPkh  MIXEF PRECmm SURQGENmm   GWQmm    ETmm   SEDth  NO3kgh  ORGNkgh BIOMth   YLDth  SURQmm
      1   1   pLB        .239E+01   84.00  190.00    0.44    0.00    0.00    0.00    0.20 1576.83  522.04  451.47  559.86   10.84    2.29   26.74    0.50    0.00  522.04
      2   1   pLB        .349E+01   84.00  190.00    1.36    0.00    0.00    0.00    0.20 1576.83  521.46  453.52  559.08   38.63    2.31   42.31    0.49    0.00  521.46
      3   1   pLB        .537E+01   84.00  190.00    2.21    0.00    0.00    0.00    0.20 1576.83  518.32  461.68  557.50   69.35    2.65   48.35    0.49    0.00  518.32
      4   1   pLB        .406E+01   84.00  190.00    3.33    0.00    0.00    0.00    0.20 1576.83  499.70  500.04  550.07  102.01    4.05   51.35    0.52    0.00  499.70
      5   1   pLB        .191E+01   79.00  190.00    2.54    0.00    0.00    0.00    0.20 1576.83  378.04  582.65  569.52   44.77    1.57   28.82   10.94    0.00  378.04
      6   1   pLB        .294E+01   79.00  190.00    9.90    0.00    0.00    0.00    0.20 1576.83  344.86  656.44  553.12  186.30    3.89   39.90   10.95    0.00  344.86
      7   1   pLB        .541E+01   79.00  190.00    3.79    0.00    0.00    0.00    0.20 1576.83  363.07  620.20  561.99   74.97    2.97   32.40   10.96    0.00  363.07
      8   1   pLB        .300E+01   87.00  190.00    0.38    0.00   89.06    0.00    0.20 1576.83  628.12  366.95  544.37   68.73    6.62   63.13    0.00    0.00  628.12
      9   1   pLB        .257E+01   87.00  190.00    1.33    0.00   91.06    0.00    0.20 1576.83  627.35  368.65  544.04  260.49    7.05   69.97    0.00    0.00  627.35
     10   1   pLB        .345E+01   87.00  190.00    2.14    0.00   91.51    0.00    0.20 1576.83  624.02  376.32  542.56  456.73    7.42   72.02    0.00    0.00  624.02
     11   1   pLB        .151E+01   87.00  190.00    3.27    0.00   89.64    0.00    0.20 1576.83  603.38  416.31  533.68  648.73    9.76   72.63    0.00    0.00  603.38
     12   2   kLB        .464E+01   69.00  190.00    2.21    0.00    0.00    0.00    0.20 1576.83  186.36  769.35  564.83   23.88    1.62   62.16    0.54    0.00  186.36
     13   2   kLB        .283E+01   69.00  190.00    1.36    0.00    0.00    0.00    0.20 1576.83  188.50  759.89  565.86   13.35    0.87   49.80    0.53    0.00  188.50
     14   2   kLB        .257E+01   69.00  190.00    3.33    0.00    0.00    0.00    0.20 1576.83  175.19  807.52  558.66   33.92    4.21   66.62    0.61    0.00  175.19
     15   2   kLB        .464E+01   69.00  190.00    0.36    0.00    0.00    0.00    0.20 1576.83  188.96  757.74  566.23    3.30    0.71   22.10    0.54    0.00  188.96
     16   2   LB         .230E+01   69.00  190.00    0.46    0.00    0.00    0.00    0.20 1576.83  196.35  747.88  569.23    3.90    0.81   27.77    0.66    0.00  196.35
     17   2   LB         .153E+01   69.00  190.00    3.58    0.00    0.00    0.00    0.20 1576.83  187.99  783.15  564.14   34.94    3.68   77.90    0.72    0.00  187.99
     18   2   LB         .284E+01   69.00  190.00    1.33    0.00    0.00    0.00    0.20 1576.83  195.95  749.40  568.91   12.75    0.91   54.87    0.65    0.00  195.95
     19   2   LB         .258E+01   69.00  190.00    2.09    0.00    0.00    0.00    0.20 1576.83  194.54  755.68  568.13   21.17    1.44   67.72    0.66    0.00  194.54
     20   2   kLB        .791E+01   60.00  190.00    3.77    0.00    0.00    0.00    0.20 1576.83   84.85  890.72  564.30   16.37    3.84   38.10   10.96    0.00   84.85
     21   2   kLB        .384E+01   60.00  190.00    2.41    0.00    0.00    0.00    0.20 1576.83   90.80  853.43  572.40    9.93    1.17   29.83   10.95    0.00   90.80
     22   2   kLB        .292E+01   60.00  190.00    9.23    0.00    0.00    0.00    0.20 1576.83   77.72  919.04  554.75   37.80    5.33   51.04   10.94    0.00   77.72
     23   2   LB         .302E+00   60.00  190.00    0.44    0.00    0.00    0.00    0.20 1576.83   97.41  836.59  574.38    1.27    0.27    9.27   10.96    0.00   97.41
     24   2   LB         .251E+00   60.00  190.00    1.31    0.00    0.00    0.00    0.20 1576.83   97.09  838.04  574.11    4.00    0.38   20.58   10.96    0.00   97.09
     25   2   LB         .341E+00   60.00  190.00    2.39    0.00    0.00    0.00    0.20 1576.83   96.08  844.84  573.00    8.00    0.95   31.64   10.96    0.00   96.08
     26   2   LB         .980E+00   60.00  190.00    3.82    0.00    0.00    0.00    0.20 1576.83   92.57  871.66  567.90   14.69    3.24   43.50   10.96    0.00   92.57
     27   2   LB         .268E+00   60.00  190.00    8.36    0.00    0.00    0.00    0.20 1576.83   89.47  888.64  563.35   27.89    4.53   56.17   10.96    0.00   89.47
     28   3   kLB        .404E+00   69.00  190.00    1.39    0.00    0.00    0.00    0.20 1576.83  188.47  759.87  565.92   11.17    0.88   45.67    0.53    0.00  188.47
     29   3   kLB        .112E+01   69.00  190.00    2.21    0.00    0.00    0.00    0.20 1576.83  186.35  769.29  564.89   21.16    1.62   59.50    0.54    0.00  186.35
     30   3   kLB        .491E+00   69.00  190.00    3.07    0.00    0.00    0.00    0.20 1576.83  175.99  805.23  559.24   26.53    4.11   61.87    0.61    0.00  175.99
     31   3   kLB        .102E+01   69.00  190.00    0.28    0.00    0.00    0.00    0.20 1576.83  189.00  757.54  566.31    2.22    0.70   16.57    0.54    0.00  189.00
     32   3   pLB        .246E+01   84.00  190.00    0.35    0.00    0.00    0.00    0.20 1576.83  522.04  451.20  560.10    8.48    2.29   23.74    0.50    0.00  522.04
     33   3   pLB        .169E+01   84.00  190.00    1.33    0.00    0.00    0.00    0.20 1576.83  521.42  453.32  559.30   35.23    2.31   41.25    0.49    0.00  521.42
     34   3   pLB        .125E+01   84.00  190.00    3.31    0.00    0.00    0.00    0.20 1576.83  499.71  499.69  550.38   90.37    4.07   50.14    0.53    0.00  499.71
     35   3   pLB        .224E+01   84.00  190.00    2.14    0.00    0.00    0.00    0.20 1576.83  518.34  461.30  557.79   62.04    2.66   47.19    0.49    0.00  518.34
     36   3   kLB        .615E+00   60.00  190.00   10.00    0.00    0.00    0.00    0.20 1576.83   76.59  922.40  553.59   35.34    5.48   50.08   10.93    0.00   76.59
     37   3   kLB        .167E+01   60.00  190.00    3.75    0.00    0.00    0.00    0.20 1576.83   84.87  890.42  564.51   14.77    3.83   36.36   10.96    0.00   84.87
     38   3   kLB        .598E+00   60.00  190.00    2.41    0.00    0.00    0.00    0.20 1576.83   90.78  853.28  572.57    8.36    1.17   27.08   10.95    0.00   90.78
     39   3   pLB        .603E+00   79.00  190.00    8.75    0.00    0.00    0.00    0.20 1576.83  348.19  649.84  555.13  139.71    3.77   37.45   10.96    0.00  348.19
     40   3   pLB        .138E+01   79.00  190.00    3.88    0.00    0.00    0.00    0.20 1576.83  362.74  620.63  562.10   67.71    2.99   31.63   10.96    0.00  362.74
     41   3   pLB        .391E+00   79.00  190.00    0.42    0.00    0.00    0.00    0.20 1576.83  381.29  572.02  571.58    5.48    1.11   13.98   10.94    0.00  381.29
     42   3   pLB        .563E+00   79.00  190.00    2.44    0.00    0.00    0.00    0.20 1576.83  378.07  582.19  569.81   37.65    1.55   27.69   10.94    0.00  378.07
     43   4   kLB        .277E+01   69.00  190.00    0.38    0.00    0.00    0.00    0.20 1576.83  188.68  755.08  569.35    3.32    0.71   22.10    0.53    0.00  188.68
     44   4   kLB        .349E+01   69.00  190.00    2.24    0.00    0.00    0.00    0.20 1576.83  186.04  766.74  567.99   23.34    1.62   61.69    0.54    0.00  186.04
     45   4   kLB        .263E+01   69.00  190.00    3.39    0.00    0.00    0.00    0.20 1576.83  174.37  805.17  562.21   34.21    4.23   66.76    0.61    0.00  174.37
     46   4   kLB        .225E+01   69.00  190.00    1.36    0.00    0.00    0.00    0.20 1576.83  188.22  757.21  568.99   12.97    0.87   49.16    0.53    0.00  188.22
     47   4   kLB        .386E+01   60.00  190.00    3.92    0.00    0.00    0.00    0.20 1576.83   84.64  891.83  563.90   16.17    3.90   37.89   10.97    0.00   84.64
     48   4   kLB        .313E+01   60.00  190.00   10.08    0.00    0.00    0.00    0.20 1576.83   76.48  922.98  553.24   40.90    5.49   51.98   10.93    0.00   76.48
     49   4   kLB        .168E+01   60.00  190.00    2.41    0.00    0.00    0.00    0.20 1576.83   90.81  853.51  572.32    9.20    1.17   28.59   10.95    0.00   90.81
     50   5   pLB        .227E+01   84.00  190.00    1.33    0.00    0.00    0.00    0.20 1576.83  521.43  453.36  559.25   36.54    2.31   41.67    0.49    0.00  521.43
     51   5   pLB        .329E+01   84.00  190.00    0.31    0.00    0.00    0.00    0.20 1576.83  522.05  451.18  560.08    7.89    2.29   22.89    0.50    0.00  522.05
     52   5   pLB        .345E+01   84.00  190.00    2.21    0.00    0.00    0.00    0.20 1576.83  518.28  461.56  557.66   67.44    2.66   48.05    0.49    0.00  518.28
     53   5   pLB        .361E+01   84.00  190.00    3.67    0.00    0.00    0.00    0.20 1576.83  498.17  502.75  549.57  112.02    4.11   52.20    0.52    0.00  498.17
     54   5   pLB        .212E+01   79.00  190.00    4.10    0.00    0.00    0.00    0.20 1576.83  362.00  622.18  561.77   75.15    3.04   32.43   10.96    0.00  362.00
     55   5   pLB        .153E+01   79.00  190.00    9.55    0.00    0.00    0.00    0.20 1576.83  345.83  654.28  553.93  169.42    3.86   39.10   10.95    0.00  345.83
     56   5   pLB        .590E+01   92.00  190.00    0.07    0.00    0.00    0.00    0.20 1576.83    0.00    0.00  836.01    0.00    0.00    0.00    0.00    0.00    0.00
     57   6   pLB        .655E+01   84.00  190.00    3.48    0.00    0.00    0.00    0.20 1576.83  499.03  501.20  549.89  113.56    4.06   52.36    0.52    0.00  499.03
     58   6   pLB        .700E+01   84.00  190.00    2.24    0.00    0.00    0.00    0.20 1576.83  518.29  461.64  557.61   73.62    2.65   48.95    0.48    0.00  518.29
     59   6   pLB        .422E+01   84.00  190.00    1.33    0.00    0.00    0.00    0.20 1576.83  521.46  453.35  559.24   39.21    2.31   42.47    0.49    0.00  521.46
     60   6   pLB        .423E+01   84.00  190.00    0.42    0.00    0.00    0.00    0.20 1576.83  522.04  451.32  560.02   11.11    2.29   27.05    0.50    0.00  522.04
     61   6   pLB        .911E+01   79.00  190.00    9.71    0.00    0.00    0.00    0.20 1576.83  345.41  655.32  553.48  205.78    3.87   40.76   10.95    0.00  345.41
     62   6   pLB        .103E+02   79.00  190.00    4.01    0.00    0.00    0.00    0.20 1576.83  362.36  621.70  561.70   85.68    3.02   33.47   10.96    0.00  362.36
     63   6   pLB        .411E+01   79.00  190.00    2.41    0.00    0.00    0.00    0.20 1576.83  378.15  582.25  569.65   46.52    1.55   29.08   10.94    0.00  378.15
     64   7   pLB        .396E+00   84.00  190.00    3.33    0.00    0.00    0.00    0.20 1576.83  498.53  497.69  553.72   79.81    4.10   48.86    0.53    0.00  498.53
     65   7   pLB        .201E+01   84.00  190.00    0.27    0.00    0.00    0.00    0.20 1576.83  521.59  448.57  563.23    6.03    2.28   20.00    0.50    0.00  521.59
     66   7   pLB        .583E+00   84.00  190.00    1.31    0.00    0.00    0.00    0.20 1576.83  520.88  450.91  562.39   30.66    2.32   39.66    0.49    0.00  520.88
     67   7   pLB        .681E+00   84.00  190.00    2.14    0.00    0.00    0.00    0.20 1576.83  517.71  458.91  560.95   54.54    2.67   45.84    0.49    0.00  517.71
     68   7   pLB        .598E+00   79.00  190.00    2.51    0.00    0.00    0.00    0.20 1576.83  377.98  582.29  569.92   39.03    1.56   27.91   10.95    0.00  377.98
     69   7   pLB        .156E+01   79.00  190.00    3.82    0.00    0.00    0.00    0.20 1576.83  362.90  620.09  562.34   67.09    2.98   31.55   10.97    0.00  362.90
     70   7   pLB        .151E+01   79.00  190.00   21.18    0.00    0.00    0.00    0.20 1576.83  305.53  722.89  535.23  370.94    4.81   44.89   10.84    0.00  305.53
     71   8   kLB        .208E+01   69.00  190.00    0.40    0.00    0.00    0.00    0.20 1576.83  188.66  755.05  569.41    3.51    0.72   22.84    0.53    0.00  188.66
     72   8   kLB        .223E+01   69.00  190.00    1.36    0.00    0.00    0.00    0.20 1576.83  188.21  757.16  569.05   13.31    0.87   49.72    0.53    0.00  188.21
     73   8   kLB        .336E+01   69.00  190.00    2.19    0.00    0.00    0.00    0.20 1576.83  186.07  766.53  568.07   23.68    1.61   61.98    0.54    0.00  186.07
     74   8   kLB        .235E+01   69.00  190.00    3.48    0.00    0.00    0.00    0.20 1576.83  174.12  805.76  562.13   35.78    4.26   67.54    0.61    0.00  174.12
     75   8   kLB        .135E+02   60.00  190.00   12.41    0.00    0.00    0.00    0.20 1576.83   72.97  933.06  549.51   58.34    5.89   55.82   10.91    0.00   72.97
     76   8   kLB        .733E+01   60.00  190.00    4.10    0.00    0.00    0.00    0.20 1576.83   84.36  892.86  563.69   18.70    3.96   40.38   10.97    0.00   84.36
     77   9   kLB        .800E+01   60.00  190.00   15.73    0.00    0.00    0.00    0.20 1576.83   68.67  944.34  545.18   72.90    6.27   57.84   10.87    0.00   68.67
     78   9   kLB        .206E+01   60.00  190.00    4.14    0.00    0.00    0.00    0.20 1576.83   84.26  892.80  563.99   16.92    3.98   38.67   10.97    0.00   84.26
     79   9   pLB        .340E+01   79.00  190.00   12.30    0.00    0.00    0.00    0.20 1576.83  337.19  669.70  549.83  239.40    4.14   41.91   10.93    0.00  337.19
     80   9   pLB        .155E+01   79.00  190.00    4.16    0.00    0.00    0.00    0.20 1576.83  361.71  622.49  561.90   74.38    3.05   32.34   10.97    0.00  361.72
     81   9   pLB        .699E+01   92.00  190.00    0.07    0.00    0.00    0.00    0.20 1576.83    0.00    0.00  836.02    0.00    0.00    0.00    0.00    0.00    0.00



                AVE MONTHLY BASIN VALUES
                   SNOW                      WATER               SED
  MON     RAIN     FALL   SURF Q    LAT Q    YIELD       ET    YIELD      PET
          (MM)     (MM)     (MM)     (MM)     (MM)     (MM)   (T/HA)     (MM)
    1   102.65    37.58    12.99    17.29    63.92     4.53     4.04     7.66
    2   119.68    45.73    16.88    20.40    71.46     7.97    17.45    14.06
    3   150.27    17.21    51.54    38.90   142.81    22.25    30.85    36.29
    4    82.55     0.52    20.25    22.18    97.70    50.92     2.16    91.02
    5   139.41     0.00    19.47    20.38    70.31    73.96     2.73   113.17
    6   159.58     0.00    28.27    25.97    81.45    99.02     2.70   133.48
    7   166.46     0.00    23.26    25.19    70.46   105.57     1.87   131.15
    8   196.59     0.00    41.19    27.94    88.44    93.85     1.99   112.92
    9   149.31     0.00    28.44    25.00    74.18    61.08     1.39    73.53
   10    95.51     0.00    13.03    16.90    52.12    32.02     0.57    37.08
   11   106.37    10.33    14.53    20.81    62.09    14.72     0.67    16.38
   12   107.28    25.44    17.43    19.06    70.67     7.78     0.70     9.32

     AVE ANNUAL BASIN STRESS DAYS
               WATER STRESS DAYS =     0.10
               TEMPERATURE STRESS DAYS =   129.03
               NITROGEN STRESS DAYS =    39.79
               PHOSPHORUS STRESS DAYS =     0.06
               AERATION STRESS DAYS =     0.00
1
    SWAT Mar 4 2014    VER 2012/Rev 622                                             

    General Input/Output section (file.cio):                                        
    3/13/2014 12:00:00 AM ARCGIS-SWAT interface AV                                  
                                                                                    
         AVE ANNUAL BASIN VALUES

              PRECIP =   1576.8 MM
              SNOW FALL =  137.26 MM
              SNOW MELT =   121.60 MM
              SUBLIMATION =     9.57 MM
              SURFACE RUNOFF Q =   287.43 MM
              LATERAL SOIL Q =  280.20 MM
              TILE Q =     0.00 MM
              GROUNDWATER (SHAL AQ) Q =   359.66 MM
              GROUNDWATER (DEEP AQ) Q =    19.00 MM
              REVAP (SHAL AQ => SOIL/PLANTS) =    7.25 MM
              DEEP AQ RECHARGE =    19.31 MM
              TOTAL AQ RECHARGE =  386.23 MM
              TOTAL WATER YLD =   946.29 MM
              PERCOLATION OUT OF SOIL =  387.07 MM
              ET =    573.7 MM
              PET =    776.2MM
              TRANSMISSION LOSSES =     0.00 MM
              SEPTIC INFLOW =       0.00 MM
              TOTAL SEDIMENT LOADING =    67.278 T/HA
              TILE FROM IMPOUNDED WATER =     0.000 (MM)
              EVAPORATION FROM IMPOUNDED WATER =     0.000 (MM)
              SEEPAGE INTO SOIL FROM IMPOUNDED WATER =    0.000 (MM)
              OVERFLOW FROM IMPOUNDED WATER =    0.000 (MM)
1
    SWAT Mar 4 2014    VER 2012/Rev 622                                             

    General Input/Output section (file.cio):                                        
    3/13/2014 12:00:00 AM ARCGIS-SWAT interface AV                                  
                                                                                    
              AVE ANNUAL BASIN VALUES


              NUTRIENTS
                   ORGANIC N =    42.244 (KG/HA)
                   ORGANIC P =     5.500 (KG/HA)
                   NO3 YIELD (SQ) =     1.310 (KG/HA)
                   NO3 YIELD (LAT) =    1.834 (KG/HA)
                   NO3 YIELD (TILE) =    0.000 (KG/HA)
                   SOLP YIELD (TILE) =    0.000(KG/HA)
                   SOLP YIELD (SURF INLET RISER) =    0.000 (KG/HA)
                   SOL P YIELD =    0.048 (KG/HA)
                   NO3 LEACHED =    20.342 (KG/HA)
                   P LEACHED =     0.185 (KG/HA)
                   N UPTAKE =    31.503 (KG/HA)
                   P UPTAKE =    7.136 (KG/HA)
                   NO3 YIELD (GWQ) =    14.833 (KG/HA)
                   ACTIVE TO SOLUTION P FLOW =         0.676 (KG/HA)
                   ACTIVE TO STABLE P FLOW =         1.561 (KG/HA)
                   N FERTILIZER APPLIED =     3.951 (KG/HA)
                   P FERTILIZER APPLIED =     0.000 (KG/HA)
                   N FIXATION =     0.000 (KG/HA)
                   DENITRIFICATION =     0.000 (KG/HA)
                   HUMUS MIN ON ACTIVE ORG N =    21.014 (KG/HA)
                   ACTIVE TO STABLE ORG N =    -9.978 (KG/HA)
                   HUMUS MIN ON ACTIVE ORG P =    3.602 (KG/HA)
                   MIN FROM FRESH ORG N =   21.394 (KG/HA)
                   MIN FROM FRESH ORG P =    5.126 (KG/HA)
                   NO3 IN RAINFALL =    14.769 (KG/HA)
                   INITIAL NO3 IN SOIL =      32.734 (KG/HA)
                   FINAL NO3 IN SOIL =        11.155 (KG/HA)
                   INITIAL ORG N IN SOIL =   32388.922 (KG/HA)
                   FINAL ORG N IN SOIL =     31779.842 (KG/HA)
                   INITIAL MIN P IN SOIL =    3072.528 (KG/HA)
                   FINAL MIN P IN SOIL =      3025.749 (KG/HA)
                   INITIAL ORG P IN SOIL =    3967.644 (KG/HA)
                   FINAL ORG P IN SOIL =    3887.778 (KG/HA)
                   NO3 IN FERT =     3.951 (KG/HA)
                   AMMONIA IN FERT =     0.000 (KG/HA)
                   ORG N IN FERT =     0.000 (KG/HA)
                   MINERAL P IN FERT =     0.000 (KG/HA)
                   ORG P IN FERT =     0.000 (KG/HA)
                   N REMOVED IN YIELD =     6.479 (KG/HA)
                   P REMOVED IN YIELD =     1.186 (KG/HA)
                   AMMONIA VOLATILIZATION =     0.000 (KG/HA)
                   AMMONIA NITRIFICATION =      0.000 (KG/HA)
                   NO3 EVAP-LAYER 2 TO 1 =    1.039

                   DIE-GRO P Q =       0.0 (No/HA)
                   DIE-GRO LP Q =       0.0 (No/HA)
                   DIE-GRO P SED =      0.0 (No/HA)
                   DIE-GRO LP SED =      0.0 (No/HA)
                   BACT P RUNOFF =      0.0 (No/HA)
                   BACT LP RUNOFF =      0.0 (No/HA)
                   BACT P SEDIMENT =      0.0 (No/HA)
                   BACT LP SEDIMENT =      0.0 (No/HA)
                   BACT P INCORP =      0.0 (No/HA)
                   BACT LP INCORP =      0.0 (No/HA)

                   NITRATE SEPTIC =         0.00 (kg/ha)
                   AMMONIA SEPTIC =         0.00 (kg/ha)
                   ORG N SEPTIC =         0.00 (kg/ha)
                   FRESH ORGN SEPTIC =         0.00 (kg/ha)
                   ORG P SEPTIC =         0.00 (kg/ha)
                   FRESH ORGP SEPTIC =         0.00 (kg/ha)
                   SOL P SEPTIC =         0.00 (kg/ha)
                   BOD SEPTIC =         0.00 (kg/ha)
