1
    SWAT Mar 4 2014    VER 2012/Rev 622                                                                  0/ 0/   0      0: 0: 0

    General Input/Output section (file.cio):                                        
    3/13/2014 12:00:00 AM ARCGIS-SWAT interface AV                                  
                                                                                    


       SUB      GIS  MON   AREAkm2  PRECIPmm SNOMELTmm     PETmm      ETmm      SWmm    PERCmm    SURQmm    GW_Qmm    WYLDmm  SYLDt/ha ORGNkg/ha ORGPkg/haNSURQkg/ha SOLPkg/ha SEDPkg/ha LAT Q(mm)LATNO3kg/hGWNO3kg/haCHOLAmic/LCBODU mg/L DOXQ mg/L TNO3kg/ha
BIGSUB   1        0    1.36110E+02   121.800    32.308     6.257     2.635   189.849     4.700    33.373     0.052    36.451    49.980   115.855    14.192     0.125     0.009    11.888     3.026     0.015     0.001 .00000E+00 0.000E+00 0.000E+00 0.000E+00     1
BIGSUB   2        0    1.40731E+02   121.800    32.308     6.255     2.634   190.036    22.230     9.437     0.401    15.892    12.292    58.651     7.185     0.023     0.003     4.870     6.053     0.068     0.043 .00000E+00 0.000E+00 0.000E+00 0.000E+00     2
BIGSUB   3        0    1.16502E+02   121.800    32.308     6.317     2.658   190.020    11.914    23.436     0.183    27.874    26.208    74.060     9.072     0.080     0.006     7.372     4.254     0.038     0.016 .00000E+00 0.000E+00 0.000E+00 0.000E+00     3
BIGSUB   4        0    1.19820E+02   121.800    32.308     6.156     2.595   190.003    19.507     8.811     0.346    17.127    13.844    58.984     7.225     0.022     0.002     5.248     7.969     0.080     0.038 .00000E+00 0.000E+00 0.000E+00 0.000E+00     4
BIGSUB   5        0    1.22159E+02   121.800    32.308    10.407     5.983   247.263     5.219    32.117     0.056    35.591    36.307    82.295    10.081     0.086     0.006     8.444     3.418     0.011     0.000 .00000E+00 0.000E+00 0.000E+00 0.000E+00     5
BIGSUB   6        0    1.45493E+02   121.800    32.308     6.244     2.629   190.009     5.273    29.527     0.060    34.445    72.281   138.722    16.993     0.107     0.008    14.235     4.859     0.023     0.001 .00000E+00 0.000E+00 0.000E+00 0.000E+00     6
BIGSUB   7        0    1.73380E+01   121.800    32.308     6.323     2.659   188.697     6.070    29.557     0.068    34.796    80.400   106.790    13.082     0.108     0.008    10.960     5.170     0.022     0.001 .00000E+00 0.000E+00 0.000E+00 0.000E+00     7
BIGSUB   8        0    1.30848E+02   121.800    32.308     6.201     2.612   190.001    12.304     6.763     0.205    20.583    22.234    75.292     9.223     0.018     0.002     6.699    13.614     0.106     0.020 .00000E+00 0.000E+00 0.000E+00 0.000E+00     8
BIGSUB   9        0    1.21993E+02   121.800    32.308    11.207     6.628   263.253     3.216    10.839     0.043    27.992    47.852    87.530    10.722     0.028     0.002     8.390    17.109     0.060     0.002 .00000E+00 0.000E+00 0.000E+00 0.000E+00     9
BIGSUB   1        0    2.36110E+02   182.300    68.844     8.335     4.154   190.000   108.807    79.051    41.083   150.690   232.015    89.422    10.954     0.212     0.010     9.480    30.288     0.551     4.385 .00000E+00 0.000E+00 0.000E+00 0.000E+00     1
BIGSUB   2        0    2.40731E+02   182.300    68.844     8.321     4.147   190.001   149.252    21.115    64.679   135.682    56.159   157.718    19.320     0.046     0.005    13.287    49.438     0.908     6.959 .00000E+00 0.000E+00 0.000E+00 0.000E+00     2
BIGSUB   3        0    2.16502E+02   182.300    68.844     8.396     4.184   190.000   126.654    54.865    51.274   143.944   123.027   111.672    13.679     0.139     0.009    10.917    37.459     0.690     5.572 .00000E+00 0.000E+00 0.000E+00 0.000E+00     3
BIGSUB   4        0    2.19820E+02   182.300    68.844     8.193     4.084   190.000   135.830    20.707    58.415   143.461    68.402   167.582    20.528     0.046     0.004    14.964    63.933     1.180     6.625 .00000E+00 0.000E+00 0.000E+00 0.000E+00     4
BIGSUB   5        0    2.22159E+02   182.300    68.844    15.560     9.644   247.244   109.313    75.579    41.553   150.983   169.789    61.049     7.478     0.146     0.008     6.478    33.578     0.448     3.243 .00000E+00 0.000E+00 0.000E+00 0.000E+00     5
BIGSUB   6        0    2.45493E+02   182.300    68.844     8.306     4.140   190.000   103.663    68.985    39.490   154.991   331.303    73.903     9.053     0.182     0.008     7.936    46.256     0.824     4.186 .00000E+00 0.000E+00 0.000E+00 0.000E+00     6
BIGSUB   7        0    2.73380E+01   182.300    68.844     8.399     4.186   190.000   103.510    69.389    39.797   154.442   376.483    74.056     9.072     0.184     0.010     7.856    44.994     0.731     4.198 .00000E+00 0.000E+00 0.000E+00 0.000E+00     7
BIGSUB   8        0    2.30848E+02   182.300    68.844     8.243     4.108   190.000   102.124    16.947    42.433   163.144   124.115   224.868    27.545     0.038     0.003    20.110   103.472     1.839     4.949 .00000E+00 0.000E+00 0.000E+00 0.000E+00     8
BIGSUB   9        0    2.21993E+02   182.300    68.844    16.949    10.702   263.467    64.300    27.075    23.990   182.960   247.481   140.253    17.181     0.049     0.002    12.763   131.738     1.527     1.930 .00000E+00 0.000E+00 0.000E+00 0.000E+00     9
BIGSUB   1        0    3.36110E+02   258.400    19.973    32.692    25.384   187.673   105.733   102.470    86.742   220.982   370.658    14.819     1.815     0.290     0.003     1.665    30.520     0.396     7.096 .00000E+00 0.000E+00 0.000E+00 0.000E+00     1
BIGSUB   2        0    3.40731E+02   258.400    19.985    32.700    25.396   187.691   156.597    30.510   126.485   210.343    99.613   116.454    14.265     0.070     0.004     9.878    51.480     0.562     8.973 .00000E+00 0.000E+00 0.000E+00 0.000E+00     2
BIGSUB   3        0    3.16502E+02   258.400    19.918    32.736    25.407   187.681   127.580    72.552   103.956   216.506   202.846    56.296     6.896     0.193     0.005     5.356    38.479     0.451     7.960 .00000E+00 0.000E+00 0.000E+00 0.000E+00     3
BIGSUB   4        0    3.19820E+02   258.400    20.101    32.652    25.387   187.653   142.360    29.866   114.912   212.866   121.798   108.153    13.248     0.070     0.004     9.771    66.395     0.739     8.495 .00000E+00 0.000E+00 0.000E+00 0.000E+00     4
BIGSUB   5        0    3.22159E+02   258.400    19.885    42.689    31.705   244.927   106.526    98.405    87.344   220.672   274.708    12.660     1.551     0.201     0.003     1.392    33.662     0.321     5.193 .00000E+00 0.000E+00 0.000E+00 0.000E+00     5
BIGSUB   6        0    3.45493E+02   258.400    19.998    32.695    25.395   187.665   101.595    90.649    83.118   221.343   538.556    10.039     1.230     0.252     0.002     1.155    46.377     0.586     6.719 .00000E+00 0.000E+00 0.000E+00 0.000E+00     6
BIGSUB   7        0    3.73380E+01   258.400    19.915    32.742    25.413   187.694   101.960    91.061    83.483   221.244   627.082    21.855     2.677     0.255     0.005     2.361    45.495     0.567     6.675 .00000E+00 0.000E+00 0.000E+00 0.000E+00     7
BIGSUB   8        0    3.30848E+02   258.400    20.055    32.680    25.398   187.651   106.460    24.774    85.635   218.742   224.716    81.465     9.979     0.060     0.002     7.480   107.086     1.226     6.902 .00000E+00 0.000E+00 0.000E+00 0.000E+00     8
BIGSUB   9        0    3.21993E+02   258.400    19.870    44.630    32.934   261.121    65.158    37.546    52.239   225.785   434.541    13.216     1.619     0.073     0.000     1.329   135.262     1.099     3.308 .00000E+00 0.000E+00 0.000E+00 0.000E+00     9
BIGSUB   1        0    4.36110E+02    32.100     0.000   110.724    60.814   153.151     0.155     3.529    55.665    65.681    11.139     0.219     0.027     0.021     0.000     0.024     4.592     0.034     3.986 .00000E+00 0.000E+00 0.000E+00 0.000E+00     1
BIGSUB   2        0    4.40731E+02    32.100     0.000   110.694    61.363   153.157     2.122     0.134    84.597    94.841     0.212     0.161     0.020     0.001     0.000     0.013     7.276     0.046     4.777 .00000E+00 0.000E+00 0.000E+00 0.000E+00     2
BIGSUB   3        0    4.16502E+02    32.100     0.000   110.794    61.266   153.205     0.875     2.019    68.046    77.924     4.860     0.280     0.034     0.011     0.000     0.030     5.560     0.037     4.338 .00000E+00 0.000E+00 0.000E+00 0.000E+00     3
BIGSUB   4        0    4.19820E+02    32.100     0.000   110.510    61.154   152.816     1.726     0.113    76.663    88.440     0.196     0.115     0.014     0.000     0.000     0.010     9.093     0.057     4.475 .00000E+00 0.000E+00 0.000E+00 0.000E+00     4
BIGSUB   5        0    4.22159E+02    32.100     0.000   116.092    69.028   210.393     0.180     3.177    56.152    66.105     7.876     0.214     0.026     0.013     0.000     0.023     4.865     0.026     2.915 .00000E+00 0.000E+00 0.000E+00 0.000E+00     5
BIGSUB   6        0    4.45493E+02    32.100     0.000   110.673    61.187   152.443     0.223     2.686    53.523    64.542    13.598     0.126     0.015     0.015     0.000     0.014     6.514     0.045     3.752 .00000E+00 0.000E+00 0.000E+00 0.000E+00     6
BIGSUB   7        0    4.73380E+01    32.100     0.000   110.795    61.120   152.282     0.312     2.721    53.833    64.872    14.359     0.395     0.048     0.016     0.000     0.042     6.490     0.046     3.626 .00000E+00 0.000E+00 0.000E+00 0.000E+00     7
BIGSUB   8        0    4.30848E+02    32.100     0.000   110.575    60.988   151.319     0.877     0.065    56.838    72.283     0.120     0.065     0.008     0.000     0.000     0.006    13.473     0.085     3.651 .00000E+00 0.000E+00 0.000E+00 0.000E+00     8
BIGSUB   9        0    4.21993E+02    32.100     0.000   117.114    70.587   222.895     0.031     0.618    34.075    52.741     5.486     0.000     0.000     0.003     0.000     0.000    16.903     0.076     1.713 .00000E+00 0.000E+00 0.000E+00 0.000E+00     9
BIGSUB   1        0    5.36110E+02   147.900     0.000   115.684    73.599   184.968     1.835    28.480    15.464    56.593    34.626     1.094     0.134     0.064     0.000     0.116    10.804     0.010     0.462 .00000E+00 0.000E+00 0.000E+00 0.000E+00     1
BIGSUB   2        0    5.40731E+02   147.900     0.000   115.688    78.340   187.523    14.733     2.619    25.780    46.921     1.027     1.187     0.145     0.006     0.000     0.095    15.745     0.015     1.289 .00000E+00 0.000E+00 0.000E+00 0.000E+00     2
BIGSUB   3        0    5.16502E+02   147.900     0.000   115.696    77.375   186.250     6.281    17.074    19.583    51.423     6.565     0.859     0.105     0.038     0.000     0.085    12.521     0.011     0.811 .00000E+00 0.000E+00 0.000E+00 0.000E+00     3
BIGSUB   4        0    5.19820E+02   147.900     0.000   115.679    77.431   185.692    12.089     2.104    23.219    48.693     0.917     0.881     0.108     0.005     0.000     0.078    20.851     0.019     1.074 .00000E+00 0.000E+00 0.000E+00 0.000E+00     4
BIGSUB   5        0    5.22159E+02   147.900     0.000   129.874    87.825   240.831     1.464    25.606    15.573    55.225    10.194     0.529     0.065     0.042     0.000     0.055    12.185     0.008     0.341 .00000E+00 0.000E+00 0.000E+00 0.000E+00     5
BIGSUB   6        0    5.45493E+02   147.900     0.000   115.687    75.549   182.682     1.714    21.720    14.934    55.180    12.286     0.307     0.038     0.049     0.000     0.033    16.753     0.015     0.412 .00000E+00 0.000E+00 0.000E+00 0.000E+00     6
BIGSUB   7        0    5.73380E+01   147.900     0.000   115.698    75.263   180.908     2.379    21.895    14.961    56.406     8.371     0.963     0.118     0.049     0.000     0.099    17.769     0.018     0.506 .00000E+00 0.000E+00 0.000E+00 0.000E+00     7
BIGSUB   8        0    5.30848E+02   147.900     0.000   115.686    74.300   179.180     5.853     1.206    16.803    54.993     0.573     0.505     0.062     0.003     0.000     0.045    35.117     0.032     0.592 .00000E+00 0.000E+00 0.000E+00 0.000E+00     8
BIGSUB   9        0    5.21993E+02   147.900     0.000   132.621    85.595   243.737     0.000     4.596     9.660    62.913     2.173     0.001     0.000     0.007     0.000     0.000    47.537     0.031     0.058 .00000E+00 0.000E+00 0.000E+00 0.000E+00     9
BIGSUB   1        0    6.36110E+02    83.500     0.000   153.333   109.568   139.640     0.000    11.849     5.655    27.425     5.944     0.219     0.027     1.130     0.000     0.022     8.479     0.059     0.012 .00000E+00 0.000E+00 0.000E+00 0.000E+00     1
BIGSUB   2        0    6.40731E+02    83.500     0.000   153.315   114.318   146.664     0.000     0.155    14.331    28.351     0.026     0.036     0.004     0.000     0.000     0.003    11.611     0.010     0.244 .00000E+00 0.000E+00 0.000E+00 0.000E+00     2
BIGSUB   3        0    6.16502E+02    83.500     0.000   153.362   112.499   142.635     0.000     6.427     8.887    26.572     0.699     0.106     0.013     0.014     0.000     0.011     9.475     0.008     0.086 .00000E+00 0.000E+00 0.000E+00 0.000E+00     3
BIGSUB   4        0    6.19820E+02    83.500     0.000   153.225   113.222   142.775     0.000     0.104    12.331    29.673     0.022     0.025     0.003     0.000     0.000     0.002    15.202     0.013     0.190 .00000E+00 0.000E+00 0.000E+00 0.000E+00     4
BIGSUB   5        0    6.22159E+02    83.500     0.000   171.913   122.718   195.465     0.000     9.913     5.474    26.326     1.038     0.096     0.012     0.016     0.000     0.010     9.486     0.005     0.000 .00000E+00 0.000E+00 0.000E+00 0.000E+00     5
BIGSUB   6        0    6.45493E+02    83.500     0.000   153.305   111.759   135.346     0.000     7.728     5.389    27.430     1.054     0.055     0.007     0.017     0.000     0.006    12.927     0.011     0.020 .00000E+00 0.000E+00 0.000E+00 0.000E+00     6
BIGSUB   7        0    6.73380E+01    83.500     0.000   153.361   111.094   133.474     0.000     7.860     5.857    28.744     0.514     0.174     0.021     0.017     0.000     0.017    13.629     0.012     0.018 .00000E+00 0.000E+00 0.000E+00 0.000E+00     7
BIGSUB   8        0    6.30848E+02    83.500     0.000   153.255   111.491   129.273     0.000     0.060     7.571    34.045     0.014     0.015     0.002     0.000     0.000     0.001    24.925     0.020     0.084 .00000E+00 0.000E+00 0.000E+00 0.000E+00     8
BIGSUB   9        0    6.21993E+02    83.500     0.000   175.497   124.292   186.664     0.000     1.059     2.762    38.686     0.030     0.000     0.000     0.002     0.000     0.000    33.994     0.019     0.000 .00000E+00 0.000E+00 0.000E+00 0.000E+00     9
BIGSUB   1        0    7.36110E+02   157.100     0.000    87.044    76.879   178.205     9.616    17.148     4.821    37.329     3.281     0.176     0.022     0.039     0.000     0.017    14.200     0.015     0.046 .00000E+00 0.000E+00 0.000E+00 0.000E+00     1
BIGSUB   2        0    7.40731E+02   157.100     0.000    87.077    77.312   179.607    26.340     0.806    14.426    35.890     0.031     0.068     0.008     0.002     0.000     0.005    18.766     0.019     0.119 .00000E+00 0.000E+00 0.000E+00 0.000E+00     2
BIGSUB   3        0    7.16502E+02   157.100     0.000    87.004    76.637   179.166    17.720     9.921     8.928    35.839     0.305     0.078     0.010     0.022     0.000     0.008    15.525     0.015     0.075 .00000E+00 0.000E+00 0.000E+00 0.000E+00     3
BIGSUB   4        0    7.19820E+02   157.100     0.000    87.221    76.505   175.423    21.606     0.677    12.043    38.947     0.032     0.062     0.008     0.001     0.000     0.005    24.528     0.025     0.091 .00000E+00 0.000E+00 0.000E+00 0.000E+00     4
BIGSUB   5        0    7.22159E+02   157.100     0.000   103.287    83.276   234.099    11.422    14.636     5.338    37.003     0.431     0.056     0.007     0.024     0.000     0.006    15.860     0.010     0.027 .00000E+00 0.000E+00 0.000E+00 0.000E+00     5
BIGSUB   6        0    7.45493E+02   157.100     0.000    87.094    75.536   174.496     8.864    11.115     4.512    38.242     0.440     0.034     0.004     0.025     0.000     0.003    21.501     0.021     0.042 .00000E+00 0.000E+00 0.000E+00 0.000E+00     6
BIGSUB   7        0    7.73380E+01   157.100     0.000    87.008    74.912   168.669    11.927    11.570     5.668    40.925     0.214     0.101     0.012     0.026     0.000     0.010    22.555     0.026     0.051 .00000E+00 0.000E+00 0.000E+00 0.000E+00     7
BIGSUB   8        0    7.30848E+02   157.100     0.000    87.176    73.586   159.597    10.893     0.388     6.505    48.439     0.020     0.036     0.004     0.001     0.000     0.003    40.327     0.045     0.035 .00000E+00 0.000E+00 0.000E+00 0.000E+00     8
BIGSUB   9        0    7.21993E+02   157.100     0.000   106.445    80.917   215.012     0.000     1.060     0.846    57.995     0.009     0.000     0.000     0.002     0.000     0.000    55.403     0.046     0.000 .00000E+00 0.000E+00 0.000E+00 0.000E+00     9
BIGSUB   1        0    8.36110E+02   170.400     0.000   131.896   108.036   143.055    26.575    56.125    19.668    91.432    12.107     0.445     0.054     0.120     0.000     0.039    14.578     0.029     0.143 .00000E+00 0.000E+00 0.000E+00 0.000E+00     1
BIGSUB   2        0    8.40731E+02   170.400     0.000   131.892   106.627   150.045    51.101    16.640    41.490    85.286     0.314     0.612     0.075     0.034     0.001     0.048    25.299     0.083     0.408 .00000E+00 0.000E+00 0.000E+00 0.000E+00     2
BIGSUB   3        0    8.16502E+02   170.400     0.000   131.944   105.900   147.754    37.221    39.750    29.346    89.190     0.664     0.280     0.034     0.084     0.001     0.025    18.693     0.052     0.231 .00000E+00 0.000E+00 0.000E+00 0.000E+00     3
BIGSUB   4        0    8.19820E+02   170.400     0.000   131.807   106.410   147.998    43.732    15.408    35.056    83.942     0.358     0.567     0.069     0.032     0.001     0.048    31.836     0.081     0.300 .00000E+00 0.000E+00 0.000E+00 0.000E+00     4
BIGSUB   5        0    8.22159E+02   170.400     0.000   148.431   113.234   203.138    26.397    53.641    20.226    90.901     0.904     0.076     0.009     0.084     0.000     0.007    15.955     0.021     0.052 .00000E+00 0.000E+00 0.000E+00 0.000E+00     5
BIGSUB   6        0    8.45493E+02   170.400     0.000   131.883   106.767   143.639    23.940    48.249    17.771    88.936     1.068     0.047     0.006     0.108     0.000     0.005    21.907     0.048     0.160 .00000E+00 0.000E+00 0.000E+00 0.000E+00     6
BIGSUB   7        0    8.73380E+01   170.400     0.000   131.948   105.271   137.111    26.629    46.027    20.543    91.208     0.631     0.133     0.016     0.102     0.001     0.013    23.582     0.048     0.158 .00000E+00 0.000E+00 0.000E+00 0.000E+00     7
BIGSUB   8        0    8.30848E+02   170.400     0.000   131.844   106.598   137.612    25.414     9.956    19.687    80.311     0.246     0.342     0.042     0.021     0.000     0.029    49.556     0.102     0.183 .00000E+00 0.000E+00 0.000E+00 0.000E+00     8
BIGSUB   9        0    8.21993E+02   170.400     0.000   151.629   115.719   195.127     6.496    13.231     3.939    80.602     0.177     0.022     0.003     0.023     0.000     0.002    62.892     0.075     0.078 .00000E+00 0.000E+00 0.000E+00 0.000E+00     9
BIGSUB   1        0    9.36110E+02   157.100     0.000    73.078    63.288   165.643    11.600    46.124    10.596    72.184     6.318     0.258     0.032     0.109     0.000     0.021    14.507     0.018     0.042 .00000E+00 0.000E+00 0.000E+00 0.000E+00     1
BIGSUB   2        0    9.40731E+02   157.100     0.000    73.081    63.886   166.594    43.064    10.788    29.049    65.572     0.057     0.153     0.019     0.024     0.001     0.011    23.964     0.054     0.277 .00000E+00 0.000E+00 0.000E+00 0.000E+00     2
BIGSUB   3        0    9.16502E+02   157.100     0.000    73.133    63.415   166.536    25.835    32.090    18.684    70.083     0.174     0.070     0.009     0.075     0.001     0.006    18.002     0.033     0.132 .00000E+00 0.000E+00 0.000E+00 0.000E+00     3
BIGSUB   4        0    9.19820E+02   157.100     0.000    73.004    63.572   166.124    36.489     9.674    24.634    66.645     0.056     0.126     0.015     0.021     0.000     0.010    30.788     0.055     0.204 .00000E+00 0.000E+00 0.000E+00 0.000E+00     4
BIGSUB   5        0    9.22159E+02   157.100     0.000    83.360    66.832   223.713    14.428    44.516    11.631    73.026     0.253     0.025     0.003     0.077     0.000     0.002    15.902     0.013     0.006 .00000E+00 0.000E+00 0.000E+00 0.000E+00     5
BIGSUB   6        0    9.45493E+02   157.100     0.000    73.073    63.469   165.205    12.475    38.963    10.202    72.159     0.327     0.016     0.002     0.095     0.000     0.001    22.092     0.029     0.059 .00000E+00 0.000E+00 0.000E+00 0.000E+00     6
BIGSUB   7        0    9.73380E+01   157.100     0.000    73.140    62.788   155.825    15.487    37.109    12.042    74.649     0.185     0.045     0.005     0.090     0.001     0.004    24.533     0.033     0.061 .00000E+00 0.000E+00 0.000E+00 0.000E+00     7
BIGSUB   8        0    9.30848E+02   157.100     0.000    73.043    63.118   159.063    19.948     5.711    13.677    69.920     0.036     0.072     0.009     0.013     0.000     0.006    49.525     0.077     0.107 .00000E+00 0.000E+00 0.000E+00 0.000E+00     8
BIGSUB   9        0    9.21993E+02   157.100     0.000    85.351    67.406   217.592     2.524     8.747     2.229    76.021     0.065     0.003     0.000     0.016     0.000     0.000    64.618     0.060     0.033 .00000E+00 0.000E+00 0.000E+00 0.000E+00     9
BIGSUB   1        0   10.36110E+02   125.200     0.000    34.167    31.320   180.305    29.026    37.208    24.873    75.742     3.911     0.167     0.021     0.103     0.000     0.013    12.653     0.042     0.241 .00000E+00 0.000E+00 0.000E+00 0.000E+00     1
BIGSUB   2        0   10.40731E+02   125.200     0.000    34.179    31.534   180.722    51.838     5.782    54.682    84.170     0.018     0.057     0.007     0.013     0.000     0.004    21.668     0.113     0.798 .00000E+00 0.000E+00 0.000E+00 0.000E+00     2
BIGSUB   3        0   10.16502E+02   125.200     0.000    34.227    31.439   180.624    39.209    24.045    38.415    80.057     0.091     0.032     0.004     0.064     0.000     0.003    16.136     0.074     0.469 .00000E+00 0.000E+00 0.000E+00 0.000E+00     3
BIGSUB   4        0   10.19820E+02   125.200     0.000    34.115    31.480   180.134    46.211     5.412    47.664    82.502     0.019     0.047     0.006     0.013     0.000     0.004    27.652     0.144     0.670 .00000E+00 0.000E+00 0.000E+00 0.000E+00     4
BIGSUB   5        0   10.22159E+02   125.200     0.000    41.856    34.664   237.650    30.330    35.204    27.010    77.316     0.141     0.015     0.002     0.071     0.000     0.001    14.047     0.031     0.128 .00000E+00 0.000E+00 0.000E+00 0.000E+00     5
BIGSUB   6        0   10.45493E+02   125.200     0.000    34.173    31.614   179.674    28.219    31.062    24.570    75.857     0.183     0.009     0.001     0.086     0.000     0.001    19.260     0.077     0.356 .00000E+00 0.000E+00 0.000E+00 0.000E+00     6
BIGSUB   7        0   10.73380E+01   125.200     0.000    34.236    31.310   173.257    27.974    28.545    26.230    75.126     0.095     0.027     0.003     0.078     0.001     0.002    19.306     0.047     0.300 .00000E+00 0.000E+00 0.000E+00 0.000E+00     7
BIGSUB   8        0   10.30848E+02   125.200     0.000    34.153    31.767   178.033    28.868     3.272    28.201    73.797     0.012     0.028     0.003     0.008     0.000     0.002    41.214     0.194     0.417 .00000E+00 0.000E+00 0.000E+00 0.000E+00     8
BIGSUB   9        0   10.21993E+02   125.200     0.000    43.345    35.785   244.826     8.100     7.428     6.445    62.993     0.037     0.001     0.000     0.016     0.000     0.000    48.725     0.082     0.196 .00000E+00 0.000E+00 0.000E+00 0.000E+00     9
BIGSUB   1        0   11.36110E+02    64.300     0.000    15.171    14.769   188.966    26.585     5.178    18.627    33.912     1.010     0.027     0.003     0.012     0.000     0.002     9.106     0.031     0.147 .00000E+00 0.000E+00 0.000E+00 0.000E+00     1
BIGSUB   2        0   11.40731E+02    64.300     0.000    15.187    14.828   188.963    29.643     0.194    30.065    43.711     0.001     0.002     0.000     0.000     0.000     0.000    11.468     0.055     0.351 .00000E+00 0.000E+00 0.000E+00 0.000E+00     2
BIGSUB   3        0   11.16502E+02    64.300     0.000    15.243    14.851   188.958    28.624     2.830    24.067    38.030     0.018     0.003     0.000     0.006     0.000     0.000     9.694     0.041     0.222 .00000E+00 0.000E+00 0.000E+00 0.000E+00     3
BIGSUB   4        0   11.19820E+02    64.300     0.000    15.115    14.756   188.971    26.017     0.164    26.240    42.803     0.001     0.002     0.000     0.000     0.000     0.000    14.670     0.067     0.244 .00000E+00 0.000E+00 0.000E+00 0.000E+00     4
BIGSUB   5        0   11.22159E+02    64.300     0.000    19.596    16.761   246.200    26.457     4.449    19.321    34.885     0.029     0.002     0.000     0.007     0.000     0.000    10.064     0.023     0.069 .00000E+00 0.000E+00 0.000E+00 0.000E+00     5
BIGSUB   6        0   11.45493E+02    64.300     0.000    15.181    14.838   188.963    23.252     3.599    17.226    35.210     0.035     0.001     0.000     0.008     0.000     0.000    13.427     0.055     0.196 .00000E+00 0.000E+00 0.000E+00 0.000E+00     6
BIGSUB   7        0   11.73380E+01    64.300     0.000    15.255    14.777   183.543    23.674     3.403    18.009    34.875     0.018     0.004     0.000     0.008     0.000     0.000    12.435     0.032     0.191 .00000E+00 0.000E+00 0.000E+00 0.000E+00     7
BIGSUB   8        0   11.30848E+02    64.300     0.000    15.161    14.849   188.964    16.171     0.094    15.643    39.485     0.001     0.001     0.000     0.000     0.000     0.000    22.678     0.110     0.095 .00000E+00 0.000E+00 0.000E+00 0.000E+00     8
BIGSUB   9        0   11.21993E+02    64.300     0.000    20.460    17.229   260.281     5.202     0.698     3.965    33.878     0.007     0.000     0.000     0.001     0.000     0.000    28.866     0.057     0.047 .00000E+00 0.000E+00 0.000E+00 0.000E+00     9
BIGSUB   1        0   12.36110E+02   104.100     0.000     9.405     8.247   189.911    50.253    19.966    32.868    68.433     2.164     0.083     0.011     0.052     0.000     0.006    14.484     0.086     0.506 .00000E+00 0.000E+00 0.000E+00 0.000E+00     1
BIGSUB   2        0   12.40731E+02   104.100     0.000     9.418     8.055   189.970    61.667     2.858    40.471    65.563     0.012     0.027     0.003     0.007     0.000     0.002    20.259     0.180     1.040 .00000E+00 0.000E+00 0.000E+00 0.000E+00     2
BIGSUB   3        0   12.16502E+02   104.100     0.000     9.471     8.084   189.974    55.875    12.528    36.761    67.161     0.049     0.019     0.003     0.033     0.000     0.001    16.367     0.127     0.723 .00000E+00 0.000E+00 0.000E+00 0.000E+00     3
BIGSUB   4        0   12.19820E+02   104.100     0.000     9.347     8.014   189.968    55.943     2.782    36.288    66.960     0.013     0.023     0.003     0.007     0.000     0.002    26.162     0.244     0.969 .00000E+00 0.000E+00 0.000E+00 0.000E+00     4
BIGSUB   5        0   12.22159E+02   104.100     0.000    12.291     9.637   247.227    50.363    18.480    32.989    68.624     0.075     0.013     0.002     0.037     0.000     0.001    15.997     0.066     0.324 .00000E+00 0.000E+00 0.000E+00 0.000E+00     5
BIGSUB   6        0   12.45493E+02   104.100     0.000     9.411     8.104   189.963    47.032    16.132    30.205    69.099     0.098     0.014     0.003     0.044     0.000     0.000    21.710     0.156     0.683 .00000E+00 0.000E+00 0.000E+00 0.000E+00     6
BIGSUB   7        0   12.73380E+01   104.100     0.000     9.480     8.112   189.964    44.883    15.849    29.408    64.991     0.071     0.021     0.003     0.043     0.000     0.001    18.628     0.099     0.504 .00000E+00 0.000E+00 0.000E+00 0.000E+00     7
BIGSUB   8        0   12.30848E+02   104.100     0.000     9.389     8.142   189.951    41.096     2.082    25.035    69.984     0.013     0.014     0.002     0.005     0.000     0.001    41.786     0.503     0.950 .00000E+00 0.000E+00 0.000E+00 0.000E+00     8
BIGSUB   9        0   12.21993E+02   104.100     0.000    12.852    10.155   263.395    24.401     4.790    11.932    70.497     0.030     0.005     0.001     0.010     0.000     0.000    53.409     0.450     0.551 .00000E+00 0.000E+00 0.000E+00 0.000E+00     9
BIGSUB   1        0 2000.36110E+02  1604.200   121.125   777.787   578.695   189.911   374.885   440.502   316.113   936.855   733.153   222.784    27.291     2.277     0.023    23.293   167.236     1.289    17.066 .00000E+00 0.000E+00 0.000E+00 0.000E+00     1
BIGSUB   2        0 2000.40731E+02  1604.200   121.137   777.806   588.440   189.970   608.587   101.038   526.456   912.222   169.761   335.126    41.051     0.225     0.013    28.217   263.027     2.113    25.278 .00000E+00 0.000E+00 0.000E+00 0.000E+00     2
BIGSUB   3        0 2000.16502E+02  1604.200   121.070   778.324   583.714   189.974   477.788   297.537   408.131   924.603   365.506   243.756    29.860     0.760     0.022    23.813   202.165     1.577    20.635 .00000E+00 0.000E+00 0.000E+00 0.000E+00     3
BIGSUB   4        0 2000.19820E+02  1604.200   121.253   777.025   584.611   189.968   541.509    95.822   467.811   922.059   205.659   336.568    41.228     0.216     0.012    30.143   339.078     2.703    23.375 .00000E+00 0.000E+00 0.000E+00 0.000E+00     4
BIGSUB   5        0 2000.22159E+02  1604.200   121.037   895.355   651.307   247.227   382.099   415.724   322.669   936.655   501.746   157.032    19.237     0.804     0.018    16.421   185.019     0.983    12.299 .00000E+00 0.000E+00 0.000E+00 0.000E+00     5
BIGSUB   6        0 2000.45493E+02  1604.200   121.150   777.727   580.987   189.963   356.250   370.415   300.999   937.432   971.230   223.275    27.351     0.989     0.019    23.390   253.582     1.889    16.586 .00000E+00 0.000E+00 0.000E+00 0.000E+00     6
BIGSUB   7        0 2000.73380E+01  1604.200   121.067   778.385   576.905   189.964   364.805   364.986   309.898   942.276  1108.423   204.564    25.059     0.976     0.028    21.366   254.587     1.682    16.289 .00000E+00 0.000E+00 0.000E+00 0.000E+00     7
BIGSUB   8        0 2000.30848E+02  1604.200   121.207   777.408   576.958   189.951   370.010    71.319   318.234   945.727   372.100   382.704    46.880     0.168     0.008    34.382   542.772     4.340    17.983 .00000E+00 0.000E+00 0.000E+00 0.000E+00     8
BIGSUB   9        0 2000.21993E+02  1604.200   121.021   918.099   657.949   263.395   179.428   117.687   152.126   973.063   737.886   241.031    29.526     0.230     0.005    22.485   696.456     3.582     7.915 .00000E+00 0.000E+00 0.000E+00 0.000E+00     9
BIGSUB   1        0    1.36110E+02    50.200    12.656    11.610     7.829   188.045    30.833    10.863    41.400    62.783     1.796     1.549     0.339     0.134     0.002     0.105     9.107     0.080     0.862 .00000E+00 0.000E+00 0.000E+00 0.000E+00     1
BIGSUB   2        0    1.40731E+02    50.200    12.656    11.623     7.992   188.006    37.522     0.678    50.807    66.320     0.005     0.023     0.003     0.004     0.000     0.002    12.654     0.143     1.699 .00000E+00 0.000E+00 0.000E+00 0.000E+00     2
BIGSUB   3        0    1.16502E+02    50.200    12.652    11.674     8.113   187.977    34.015     6.423    46.047    64.482     0.043     0.086     0.014     0.073     0.001     0.006    10.246     0.105     1.202 .00000E+00 0.000E+00 0.000E+00 0.000E+00     3
BIGSUB   4        0    1.19820E+02    50.200    12.663    11.556     7.972   188.008    34.042     0.650    46.008    64.828     0.005     0.022     0.003     0.004     0.000     0.002    16.241     0.192     1.619 .00000E+00 0.000E+00 0.000E+00 0.000E+00     4
BIGSUB   5        0    1.22159E+02    50.200    12.650    14.885    10.432   245.198    30.653     9.942    41.477    62.841     0.068     0.126     0.022     0.089     0.001     0.009     9.977     0.065     0.599 .00000E+00 0.000E+00 0.000E+00 0.000E+00     5
BIGSUB   6        0    1.45493E+02    50.200    12.657    11.617     7.987   188.006    28.790     8.493    38.649    61.964     0.085     0.146     0.024     0.088     0.001     0.011    13.496     0.127     1.064 .00000E+00 0.000E+00 0.000E+00 0.000E+00     6
BIGSUB   7        0    1.73380E+01    50.200    12.651    11.684     8.045   187.996    29.005     8.576    37.946    60.978     0.065     0.103     0.015     0.088     0.001     0.008    13.107     0.148     0.903 .00000E+00 0.000E+00 0.000E+00 0.000E+00     7
BIGSUB   8        0    1.30848E+02    50.200    12.660    11.597     7.868   188.037    25.091     0.389    33.495    60.681     0.004     0.014     0.002     0.002     0.000     0.001    25.528     0.349     1.620 .00000E+00 0.000E+00 0.000E+00 0.000E+00     8
BIGSUB   9        0    1.21993E+02    50.200    12.648    15.526    10.565   261.536    15.756     2.029    19.793    55.657     0.018     0.024     0.003     0.008     0.000     0.002    33.297     0.329     1.020 .00000E+00 0.000E+00 0.000E+00 0.000E+00     9
BIGSUB   1        0    2.36110E+02   116.500    36.432    12.768     6.363   189.366    49.101    26.596    33.309    74.553     4.354     2.976     0.597     0.249     0.006     0.312    13.263     0.146     1.309 .00000E+00 0.000E+00 0.000E+00 0.000E+00     1
BIGSUB   2        0    2.40731E+02   116.500    36.432    12.749     6.353   189.367    64.736     3.909    42.707    68.718     0.037     0.156     0.022     0.024     0.001     0.012    20.091     0.275     2.437 .00000E+00 0.000E+00 0.000E+00 0.000E+00     2
BIGSUB   3        0    2.16502E+02   116.500    36.432    12.858     6.408   189.364    56.130    17.010    37.617    71.986     0.166     0.308     0.049     0.149     0.004     0.029    15.685     0.196     1.756 .00000E+00 0.000E+00 0.000E+00 0.000E+00     3
BIGSUB   4        0    2.19820E+02   116.500    36.432    12.560     6.260   189.373    58.887     3.789    38.735    70.331     0.043     0.159     0.022     0.023     0.001     0.013    26.015     0.367     2.284 .00000E+00 0.000E+00 0.000E+00 0.000E+00     4
BIGSUB   5        0    2.22159E+02   116.500    36.432    19.863    11.993   246.605    49.169    25.034    33.250    74.393     0.251     0.407     0.066     0.178     0.004     0.039    14.704     0.123     0.977 .00000E+00 0.000E+00 0.000E+00 0.000E+00     5
BIGSUB   6        0    2.45493E+02   116.500    36.432    12.728     6.343   189.368    46.527    22.231    31.307    74.985     0.310     0.469     0.074     0.185     0.004     0.045    20.149     0.223     1.363 .00000E+00 0.000E+00 0.000E+00 0.000E+00     6
BIGSUB   7        0    2.73380E+01   116.500    36.432    12.863     6.410   189.364    46.778    22.395    31.228    74.700     0.228     0.335     0.048     0.183     0.004     0.032    19.766     0.247     1.339 .00000E+00 0.000E+00 0.000E+00 0.000E+00     7
BIGSUB   8        0    2.30848E+02   116.500    36.432    12.636     6.297   189.371    44.021     2.692    28.563    74.538     0.035     0.114     0.016     0.016     0.001     0.010    42.068     0.631     1.975 .00000E+00 0.000E+00 0.000E+00 0.000E+00     8
BIGSUB   9        0    2.21993E+02   116.500    36.432    21.224    13.076   262.829    27.797     6.602    17.508    79.160     0.071     0.096     0.012     0.025     0.000     0.009    54.469     0.567     1.010 .00000E+00 0.000E+00 0.000E+00 0.000E+00     9
BIGSUB   1        0    3.36110E+02   162.000    21.426    36.331    27.986   182.928    95.754    41.232    64.364   134.328     5.037     3.319     0.616     0.202     0.007     0.460    26.895     0.262     3.226 .00000E+00 0.000E+00 0.000E+00 0.000E+00     1
BIGSUB   2        0    3.40731E+02   162.000    21.439    36.333    28.325   182.799   120.559     4.271    80.648   126.187     0.034     0.210     0.029     0.018     0.001     0.019    38.731     0.450     5.234 .00000E+00 0.000E+00 0.000E+00 0.000E+00     2
BIGSUB   3        0    3.16502E+02   162.000    21.372    36.374    28.540   182.739   107.242    25.311    71.950   130.300     0.274     0.572     0.088     0.126     0.005     0.066    30.879     0.331     4.011 .00000E+00 0.000E+00 0.000E+00 0.000E+00     3
BIGSUB   4        0    3.19820E+02   162.000    21.556    36.272    28.328   182.738   109.527     4.117    73.299   129.759     0.039     0.217     0.030     0.017     0.001     0.021    50.069     0.597     4.853 .00000E+00 0.000E+00 0.000E+00 0.000E+00     4
BIGSUB   5        0    3.22159E+02   162.000    21.338    44.659    33.637   239.919    95.476    38.198    64.217   133.967     0.425     0.763     0.120     0.147     0.005     0.091    29.700     0.223     2.476 .00000E+00 0.000E+00 0.000E+00 0.000E+00     5
BIGSUB   6        0    3.45493E+02   162.000    21.452    36.327    28.314   182.761    89.928    33.325    60.419   135.995     0.495     0.845     0.129     0.159     0.005     0.100    40.527     0.391     3.107 .00000E+00 0.000E+00 0.000E+00 0.000E+00     6
BIGSUB   7        0    3.73380E+01   162.000    21.369    36.379    28.385   182.749    90.535    33.572    60.735   135.609     0.329     0.599     0.086     0.160     0.005     0.067    39.565     0.418     3.181 .00000E+00 0.000E+00 0.000E+00 0.000E+00     7
BIGSUB   8        0    3.30848E+02   162.000    21.510    36.302    28.071   182.717    81.134     2.747    54.384   138.932     0.028     0.142     0.019     0.011     0.001     0.013    80.206     0.990     4.019 .00000E+00 0.000E+00 0.000E+00 0.000E+00     8
BIGSUB   9        0    3.21993E+02   162.000    21.323    46.275    33.939   256.193    50.951     8.870    34.218   148.493     0.078     0.123     0.015     0.023     0.000     0.013   104.556     0.885     1.907 .00000E+00 0.000E+00 0.000E+00 0.000E+00     9
BIGSUB   1        0    4.36110E+02   135.800     0.000    55.560    36.762   175.703    56.059    32.786    67.130   119.967     7.881     2.970     0.516     0.138     0.005     0.455    17.783     0.154     3.508 .00000E+00 0.000E+00 0.000E+00 0.000E+00     1
BIGSUB   2        0    4.40731E+02   135.800     0.000    55.578    37.104   175.594    74.277     5.626    88.229   123.489     0.167     0.598     0.080     0.024     0.001     0.055    26.588     0.259     5.453 .00000E+00 0.000E+00 0.000E+00 0.000E+00     2
BIGSUB   3        0    4.16502E+02   135.800     0.000    55.560    37.258   175.522    64.139    21.204    76.583   121.275     0.699     0.982     0.146     0.092     0.004     0.121    20.861     0.192     4.258 .00000E+00 0.000E+00 0.000E+00 0.000E+00     3
BIGSUB   4        0    4.19820E+02   135.800     0.000    55.623    37.194   175.598    66.935     5.357    79.864   122.069     0.194     0.596     0.080     0.022     0.001     0.059    34.103     0.337     5.010 .00000E+00 0.000E+00 0.000E+00 0.000E+00     4
BIGSUB   5        0    4.22159E+02   135.800     0.000    64.312    43.924   232.707    55.652    30.792    66.888   119.459     1.041     1.165     0.178     0.103     0.004     0.153    19.502     0.132     2.718 .00000E+00 0.000E+00 0.000E+00 0.000E+00     5
BIGSUB   6        0    4.45493E+02   135.800     0.000    55.584    37.098   175.598    52.228    27.517    63.060   119.220     1.214     1.303     0.194     0.116     0.004     0.167    26.512     0.223     3.319 .00000E+00 0.000E+00 0.000E+00 0.000E+00     6
BIGSUB   7        0    4.73380E+01   135.800     0.000    55.564    37.102   175.567    52.795    27.695    63.465   119.041     0.823     0.974     0.137     0.117     0.005     0.116    25.735     0.225     3.366 .00000E+00 0.000E+00 0.000E+00 0.000E+00     7
BIGSUB   8        0    4.30848E+02   135.800     0.000    55.615    36.900   175.676    48.654     3.883    58.672   118.523     0.157     0.423     0.056     0.016     0.001     0.041    54.001     0.537     4.125 .00000E+00 0.000E+00 0.000E+00 0.000E+00     8
BIGSUB   9        0    4.21993E+02   135.800     0.000    66.015    44.539   249.227    28.891     8.528    35.704   114.809     0.236     0.262     0.033     0.021     0.000     0.027    69.457     0.467     1.926 .00000E+00 0.000E+00 0.000E+00 0.000E+00     9
BIGSUB   1        0    5.36110E+02   101.400     0.000   117.718    74.384   173.640     1.409    19.712    31.761    60.983     5.682     1.549     0.254     0.063     0.002     0.260     7.067     0.013     1.618 .00000E+00 0.000E+00 0.000E+00 0.000E+00     1
BIGSUB   2        0    5.40731E+02   101.400     0.000   117.715    78.253   175.848     9.428     1.417    44.900    60.355     0.056     0.192     0.025     0.007     0.000     0.018    10.776     0.029     2.778 .00000E+00 0.000E+00 0.000E+00 0.000E+00     2
BIGSUB   3        0    5.16502E+02   101.400     0.000   117.734    77.803   173.805     4.269    11.630    37.241    60.074     0.544     0.587     0.086     0.043     0.001     0.082     8.388     0.018     2.061 .00000E+00 0.000E+00 0.000E+00 0.000E+00     3
BIGSUB   4        0    5.19820E+02   101.400     0.000   117.680    77.917   174.492     7.708     1.166    40.122    58.208     0.057     0.166     0.022     0.005     0.000     0.017    13.979     0.032     2.378 .00000E+00 0.000E+00 0.000E+00 0.000E+00     4
BIGSUB   5        0    5.22159E+02   101.400     0.000   130.767    87.858   228.768     1.234    17.823    31.431    59.542     0.842     0.762     0.113     0.049     0.002     0.111     7.842     0.010     1.237 .00000E+00 0.000E+00 0.000E+00 0.000E+00     5
BIGSUB   6        0    5.45493E+02   101.400     0.000   117.711    76.855   171.380     1.300    15.261    29.596    57.886     0.940     0.822     0.120     0.056     0.001     0.117    10.739     0.018     1.424 .00000E+00 0.000E+00 0.000E+00 0.000E+00     6
BIGSUB   7        0    5.73380E+01   101.400     0.000   117.735    76.563   170.484     1.714    15.341    30.103    59.033     0.569     0.606     0.084     0.059     0.002     0.078    11.280     0.022     1.459 .00000E+00 0.000E+00 0.000E+00 0.000E+00     7
BIGSUB   8        0    5.30848E+02   101.400     0.000   117.694    76.351   170.228     3.947     0.679    28.524    54.132     0.035     0.099     0.013     0.003     0.000     0.010    22.811     0.045     1.517 .00000E+00 0.000E+00 0.000E+00 0.000E+00     8
BIGSUB   9        0    5.21993E+02   101.400     0.000   133.288    87.653   238.215     0.225     3.520    16.347    51.367     0.109     0.093     0.012     0.010     0.000     0.010    30.275     0.038     0.288 .00000E+00 0.000E+00 0.000E+00 0.000E+00     9
BIGSUB   1        0    6.36110E+02   214.800     0.000   101.542    81.892   177.839    43.574    64.981    27.442   114.536    12.985     3.168     0.501     0.165     0.002     0.528    20.031     0.060     0.716 .00000E+00 0.000E+00 0.000E+00 0.000E+00     1
BIGSUB   2        0    6.40731E+02   214.800     0.000   101.564    84.685   180.378    77.270    14.260    47.260    98.232     0.284     1.136     0.148     0.034     0.001     0.110    33.835     0.142     1.260 .00000E+00 0.000E+00 0.000E+00 0.000E+00     2
BIGSUB   3        0    6.16502E+02   214.800     0.000   101.514    84.239   178.478    56.978    43.483    35.271   106.461     0.951     1.459     0.206     0.109     0.003     0.195    25.275     0.093     0.800 .00000E+00 0.000E+00 0.000E+00 0.000E+00     3
BIGSUB   4        0    6.19820E+02   214.800     0.000   101.663    84.350   179.393    68.277    13.606    41.605   101.291     0.332     1.149     0.151     0.032     0.001     0.119    43.497     0.179     1.093 .00000E+00 0.000E+00 0.000E+00 0.000E+00     4
BIGSUB   5        0    6.22159E+02   214.800     0.000   116.783    91.463   233.962    42.002    61.166    26.459   111.784     1.365     1.571     0.229     0.114     0.002     0.230    22.084     0.040     0.351 .00000E+00 0.000E+00 0.000E+00 0.000E+00     5
BIGSUB   6        0    6.45493E+02   214.800     0.000   101.576    83.572   176.581    40.284    55.119    25.225   112.880     1.596     1.769     0.252     0.139     0.002     0.250    30.587     0.097     0.576 .00000E+00 0.000E+00 0.000E+00 0.000E+00     6
BIGSUB   7        0    6.73380E+01   214.800     0.000   101.516    83.159   176.414    41.003    54.868    25.971   112.698     1.021     1.341     0.183     0.141     0.003     0.172    29.889     0.084     0.529 .00000E+00 0.000E+00 0.000E+00 0.000E+00     7
BIGSUB   8        0    6.30848E+02   214.800     0.000   101.632    82.970   176.460    46.010    10.339    27.775   109.354     0.273     0.824     0.107     0.025     0.001     0.084    69.401     0.336     0.837 .00000E+00 0.000E+00 0.000E+00 0.000E+00     8
BIGSUB   9        0    6.21993E+02   214.800     0.000   119.743    90.618   246.595    20.360    18.342    12.439   118.958     0.309     0.410     0.051     0.033     0.000     0.043    87.141     0.280     0.338 .00000E+00 0.000E+00 0.000E+00 0.000E+00     9
BIGSUB   1        0    7.36110E+02   125.700     0.000   141.439   112.254   145.340     0.000    37.047    17.878    66.711    12.299     1.749     0.266     0.176     0.002     0.282     9.810     0.022     0.216 .00000E+00 0.000E+00 0.000E+00 0.000E+00     1
BIGSUB   2        0    7.40731E+02   125.700     0.000   141.443   115.675   156.619     8.846    10.597    34.136    63.246     0.324     1.099     0.142     0.023     0.001     0.106    15.638     0.016     0.547 .00000E+00 0.000E+00 0.000E+00 0.000E+00     2
BIGSUB   3        0    7.16502E+02   125.700     0.000   141.442   113.490   151.138     2.870    25.744    24.162    64.245     0.941     1.110     0.154     0.056     0.002     0.149    11.980     0.012     0.287 .00000E+00 0.000E+00 0.000E+00 0.000E+00     3
BIGSUB   4        0    7.19820E+02   125.700     0.000   141.449   114.927   154.250     7.525     9.406    30.138    62.726     0.352     1.033     0.134     0.020     0.001     0.108    20.609     0.021     0.418 .00000E+00 0.000E+00 0.000E+00 0.000E+00     4
BIGSUB   5        0    7.22159E+02   125.700     0.000   160.663   121.950   202.777     0.000    34.991    17.497    65.382     1.346     1.097     0.157     0.056     0.002     0.166    10.934     0.008     0.078 .00000E+00 0.000E+00 0.000E+00 0.000E+00     5
BIGSUB   6        0    7.45493E+02   125.700     0.000   141.444   112.433   144.474     0.000    31.696    16.758    65.249     1.487     1.192     0.168     0.070     0.002     0.174    14.948     0.015     0.148 .00000E+00 0.000E+00 0.000E+00 0.000E+00     6
BIGSUB   7        0    7.73380E+01   125.700     0.000   141.443   112.198   143.587     0.000    31.796    16.928    66.417     0.904     0.902     0.122     0.071     0.003     0.118    15.824     0.018     0.161 .00000E+00 0.000E+00 0.000E+00 0.000E+00     7
BIGSUB   8        0    7.30848E+02   125.700     0.000   141.449   113.499   146.859     3.480     6.402    20.087    62.612     0.260     0.697     0.090     0.014     0.001     0.072    34.313     0.035     0.236 .00000E+00 0.000E+00 0.000E+00 0.000E+00     8
BIGSUB   9        0    7.21993E+02   125.700     0.000   164.383   123.595   208.652     0.000     9.919     9.048    65.227     0.216     0.231     0.029     0.016     0.000     0.023    45.283     0.034     0.062 .00000E+00 0.000E+00 0.000E+00 0.000E+00     9
BIGSUB   1        0    8.36110E+02   176.100     0.000   125.732   103.118   159.430     0.084    44.086     5.333    64.026     6.677     0.780     0.118     0.100     0.001     0.123    13.018     0.012     0.000 .00000E+00 0.000E+00 0.000E+00 0.000E+00     1
BIGSUB   2        0    8.40731E+02   176.100     0.000   125.725   106.430   182.511    15.356     6.221    18.103    46.426     0.035     0.169     0.022     0.014     0.001     0.016    19.648     0.020     0.152 .00000E+00 0.000E+00 0.000E+00 0.000E+00     2
BIGSUB   3        0    8.16502E+02   176.100     0.000   125.774   103.724   172.250     4.980    28.949     9.780    56.008     0.205     0.295     0.041     0.067     0.002     0.042    15.334     0.015     0.045 .00000E+00 0.000E+00 0.000E+00 0.000E+00     3
BIGSUB   4        0    8.19820E+02   176.100     0.000   125.644   105.486   177.581    12.940     5.061    15.685    48.874     0.031     0.134     0.017     0.011     0.000     0.014    25.939     0.026     0.108 .00000E+00 0.000E+00 0.000E+00 0.000E+00     4
BIGSUB   5        0    8.22159E+02   176.100     0.000   141.155   108.588   219.584     0.000    41.473     5.153    62.758     0.305     0.358     0.051     0.070     0.001     0.055    14.559     0.010     0.000 .00000E+00 0.000E+00 0.000E+00 0.000E+00     5
BIGSUB   6        0    8.45493E+02   176.100     0.000   125.716   102.115   160.488     0.159    35.085     5.018    61.741     0.361     0.412     0.057     0.084     0.001     0.060    20.153     0.020     0.000 .00000E+00 0.000E+00 0.000E+00 0.000E+00     6
BIGSUB   7        0    8.73380E+01   176.100     0.000   125.777   101.942   157.741     0.130    35.122     5.060    63.557     0.208     0.287     0.039     0.085     0.002     0.038    21.873     0.026     0.000 .00000E+00 0.000E+00 0.000E+00 0.000E+00     7
BIGSUB   8        0    8.30848E+02   176.100     0.000   125.677   103.666   161.382     6.303     2.871     9.170    56.850     0.019     0.079     0.010     0.007     0.000     0.008    43.293     0.048     0.031 .00000E+00 0.000E+00 0.000E+00 0.000E+00     8
BIGSUB   9        0    8.21993E+02   176.100     0.000   144.135   109.719   211.651     0.000     6.460     2.621    68.214     0.048     0.055     0.007     0.012     0.000     0.006    58.348     0.048     0.000 .00000E+00 0.000E+00 0.000E+00 0.000E+00     9
BIGSUB   1        0    9.36110E+02   288.100     0.000    51.967    48.820   185.370    66.647   120.664    31.048   180.373    14.940     1.314     0.193     0.305     0.004     0.195    27.296     0.075     0.288 .00000E+00 0.000E+00 0.000E+00 0.000E+00     1
BIGSUB   2        0    9.40731E+02   288.100     0.000    51.996    48.928   185.412   137.722    49.931    75.315   178.185     0.263     1.030     0.132     0.110     0.004     0.098    50.537     0.237     1.058 .00000E+00 0.000E+00 0.000E+00 0.000E+00     2
BIGSUB   3        0    9.16502E+02   288.100     0.000    51.974    48.749   185.472    99.146    92.053    50.222   180.496     0.461     0.745     0.100     0.227     0.005     0.093    36.429     0.147     0.598 .00000E+00 0.000E+00 0.000E+00 0.000E+00     3
BIGSUB   4        0    9.19820E+02   288.100     0.000    52.058    48.876   185.265   121.265    48.923    65.882   180.919     0.302     1.012     0.129     0.109     0.004     0.103    63.987     0.295     0.953 .00000E+00 0.000E+00 0.000E+00 0.000E+00     4
BIGSUB   5        0    9.22159E+02   288.100     0.000    63.195    53.245   242.687    70.634   117.114    33.065   181.610     0.624     0.653     0.091     0.220     0.004     0.096    30.063     0.057     0.188 .00000E+00 0.000E+00 0.000E+00 0.000E+00     5
BIGSUB   6        0    9.45493E+02   288.100     0.000    52.004    48.553   185.286    66.326   108.806    31.198   182.989     0.870     0.888     0.120     0.276     0.004     0.119    41.692     0.129     0.391 .00000E+00 0.000E+00 0.000E+00 0.000E+00     6
BIGSUB   7        0    9.73380E+01   288.100     0.000    51.982    48.247   184.253    68.580   105.982    32.677   181.185     0.646     0.707     0.092     0.269     0.006     0.085    41.207     0.091     0.312 .00000E+00 0.000E+00 0.000E+00 0.000E+00     7
BIGSUB   8        0    9.30848E+02   288.100     0.000    52.050    48.496   184.829    79.735    41.319    41.848   184.384     0.366     0.971     0.123     0.094     0.002     0.095    99.788     0.520     0.910 .00000E+00 0.000E+00 0.000E+00 0.000E+00     8
BIGSUB   9        0    9.21993E+02   288.100     0.000    65.383    53.599   257.865    29.769    49.225    13.756   185.195     0.412     0.618     0.076     0.084     0.001     0.059   121.553     0.384     0.430 .00000E+00 0.000E+00 0.000E+00 0.000E+00     9
BIGSUB   1        0   10.36110E+02    46.400     0.000    43.717    38.187   182.194     0.326     6.942    24.097    37.209     1.217     0.069     0.010     0.017     0.000     0.010     4.661     0.006     0.163 .00000E+00 0.000E+00 0.000E+00 0.000E+00     1
BIGSUB   2        0   10.40731E+02    46.400     0.000    43.745    38.342   183.520     3.756     0.460    49.669    59.490     0.002     0.009     0.001     0.001     0.000     0.001     6.543     0.009     0.672 .00000E+00 0.000E+00 0.000E+00 0.000E+00     2
BIGSUB   3        0   10.16502E+02    46.400     0.000    43.786    38.106   183.328     1.680     4.113    35.487    46.937     0.024     0.025     0.003     0.010     0.000     0.004     5.274     0.007     0.374 .00000E+00 0.000E+00 0.000E+00 0.000E+00     3
BIGSUB   4        0   10.19820E+02    46.400     0.000    43.710    38.257   182.311     3.151     0.385    43.676    55.021     0.002     0.007     0.001     0.001     0.000     0.001     8.468     0.012     0.575 .00000E+00 0.000E+00 0.000E+00 0.000E+00     4
BIGSUB   5        0   10.22159E+02    46.400     0.000    54.343    43.334   239.764     0.541     6.338    25.370    38.348     0.038     0.035     0.005     0.012     0.000     0.005     5.104     0.005     0.106 .00000E+00 0.000E+00 0.000E+00 0.000E+00     5
BIGSUB   6        0   10.45493E+02    46.400     0.000    43.744    38.253   181.428     0.422     5.319    23.723    37.381     0.048     0.043     0.006     0.014     0.000     0.006     6.891     0.009     0.214 .00000E+00 0.000E+00 0.000E+00 0.000E+00     6
BIGSUB   7        0   10.73380E+01    46.400     0.000    43.800    38.173   179.879     0.701     5.309    24.406    38.362     0.033     0.033     0.004     0.014     0.000     0.004     7.167     0.011     0.201 .00000E+00 0.000E+00 0.000E+00 0.000E+00     7
BIGSUB   8        0   10.30848E+02    46.400     0.000    43.747    38.486   178.363     1.598     0.222    28.512    43.928     0.001     0.004     0.001     0.001     0.000     0.000    13.536     0.021     0.409 .00000E+00 0.000E+00 0.000E+00 0.000E+00     8
BIGSUB   9        0   10.21993E+02    46.400     0.000    56.417    45.066   247.219     0.000     1.156    10.724    30.654     0.010     0.009     0.001     0.002     0.000     0.001    18.057     0.020     0.119 .00000E+00 0.000E+00 0.000E+00 0.000E+00     9
BIGSUB   1        0   11.36110E+02   132.000     7.435    10.294     9.665   190.011    49.498    18.793    16.012    48.237     2.493     0.183     0.026     0.048     0.001     0.027    12.138     0.050     0.146 .00000E+00 0.000E+00 0.000E+00 0.000E+00     1
BIGSUB   2        0   11.40731E+02   132.000     7.435    10.297     9.727   190.017    61.656     2.077    28.818    50.552     0.013     0.049     0.006     0.005     0.000     0.005    17.210     0.113     0.494 .00000E+00 0.000E+00 0.000E+00 0.000E+00     2
BIGSUB   3        0   11.16502E+02   132.000     7.435    10.344     9.711   190.014    56.067    11.471    21.974    49.046     0.057     0.078     0.011     0.029     0.001     0.011    13.814     0.077     0.289 .00000E+00 0.000E+00 0.000E+00 0.000E+00     3
BIGSUB   4        0   11.19820E+02   132.000     7.435    10.225     9.645   190.002    55.019     1.921    25.114    51.243     0.014     0.044     0.006     0.004     0.000     0.005    22.049     0.143     0.414 .00000E+00 0.000E+00 0.000E+00 0.000E+00     4
BIGSUB   5        0   11.22159E+02   132.000     7.435    15.445    12.579   247.259    50.007    17.195    16.748    48.802     0.087     0.097     0.013     0.033     0.001     0.015    13.534     0.038     0.085 .00000E+00 0.000E+00 0.000E+00 0.000E+00     5
BIGSUB   6        0   11.45493E+02   132.000     7.435    10.289     9.693   190.007    45.674    14.593    15.130    49.313     0.114     0.122     0.016     0.038     0.001     0.017    18.347     0.090     0.191 .00000E+00 0.000E+00 0.000E+00 0.000E+00     6
BIGSUB   7        0   11.73380E+01   132.000     7.435    10.351     9.716   190.022    45.935    14.483    15.985    48.681     0.083     0.096     0.012     0.038     0.001     0.012    16.937     0.075     0.172 .00000E+00 0.000E+00 0.000E+00 0.000E+00     7
BIGSUB   8        0   11.30848E+02   132.000     7.435    10.261     9.711   190.001    37.400     1.163    15.606    52.697     0.009     0.028     0.004     0.003     0.000     0.003    34.503     0.263     0.295 .00000E+00 0.000E+00 0.000E+00 0.000E+00     8
BIGSUB   9        0   11.21993E+02   132.000     7.435    16.445    13.288   263.467    18.871     3.363     5.164    53.425     0.027     0.029     0.004     0.006     0.000     0.003    44.302     0.225     0.115 .00000E+00 0.000E+00 0.000E+00 0.000E+00     9
BIGSUB   1        0   12.36110E+02   187.400    33.936     4.493     4.406   190.000    44.089    78.840    49.273   144.475    13.899     0.916     0.129     0.238     0.003     0.134    14.822     0.078     0.685 .00000E+00 0.000E+00 0.000E+00 0.000E+00     1
BIGSUB   2        0   12.40731E+02   187.400    33.936     4.491     4.407   190.000    75.704    34.824    71.517   136.180     0.301     1.168     0.148     0.099     0.003     0.112    27.162     0.208     1.708 .00000E+00 0.000E+00 0.000E+00 0.000E+00     2
BIGSUB   3        0   12.16502E+02   187.400    33.936     4.532     4.414   190.000    57.098    60.935    59.183   141.833     0.460     0.765     0.101     0.189     0.004     0.094    19.680     0.136     1.104 .00000E+00 0.000E+00 0.000E+00 0.000E+00     3
BIGSUB   4        0   12.19820E+02   187.400    33.936     4.426     4.344   190.000    68.882    34.363    64.593   136.265     0.352     1.163     0.148     0.097     0.003     0.119    34.935     0.282     1.635 .00000E+00 0.000E+00 0.000E+00 0.000E+00     4
BIGSUB   5        0   12.22159E+02   187.400    33.936     7.178     5.922   247.243    44.784    77.005    49.830   144.637     0.606     0.597     0.082     0.182     0.003     0.088    16.229     0.060     0.456 .00000E+00 0.000E+00 0.000E+00 0.000E+00     5
BIGSUB   6        0   12.45493E+02   187.400    33.936     4.484     4.391   190.000    43.174    72.822    46.814   143.500     0.867     0.846     0.113     0.235     0.003     0.113    22.392     0.138     0.926 .00000E+00 0.000E+00 0.000E+00 0.000E+00     6
BIGSUB   7        0   12.73380E+01   187.400    33.936     4.536     4.432   190.000    43.192    73.075    46.695   143.126     0.771     0.756     0.097     0.238     0.005     0.090    21.858     0.187     0.847 .00000E+00 0.000E+00 0.000E+00 0.000E+00     7
BIGSUB   8        0   12.30848E+02   187.400    33.936     4.455     4.396   190.000    52.127    30.359    46.860   135.225     0.487     1.217     0.153     0.087     0.002     0.119    56.407     0.587     1.777 .00000E+00 0.000E+00 0.000E+00 0.000E+00     8
BIGSUB   9        0   12.21993E+02   187.400    33.936     7.695     6.301   263.467    31.413    38.410    26.606   135.633     0.581     0.863     0.107     0.083     0.001     0.082    69.894     0.561     1.207 .00000E+00 0.000E+00 0.000E+00 0.000E+00     9
BIGSUB   1        0 2001.36110E+02  1736.400   111.885   713.170   551.666   190.000   437.375   502.544   409.048  1108.181    89.262    20.541     3.563     1.834     0.035     2.891   175.891     0.957    12.738 .00000E+00 0.000E+00 0.000E+00 0.000E+00     1
BIGSUB   2        0 2001.40731E+02  1736.400   111.898   713.259   566.222   190.000   686.833   134.271   632.108  1077.379     1.521     5.838     0.759     0.363     0.014     0.554   279.412     1.900    23.493 .00000E+00 0.000E+00 0.000E+00 0.000E+00     2
BIGSUB   3        0 2001.16502E+02  1736.400   111.827   713.566   560.555   190.000   544.614   348.327   505.516  1093.144     4.825     7.013     0.998     1.171     0.032     0.891   213.844     1.329    16.785 .00000E+00 0.000E+00 0.000E+00 0.000E+00     3
BIGSUB   4        0 2001.19820E+02  1736.400   112.022   712.867   563.556   190.000   614.157   128.745   564.719  1081.533     1.722     5.703     0.744     0.347     0.012     0.579   359.891     2.483    21.341 .00000E+00 0.000E+00 0.000E+00 0.000E+00     4
BIGSUB   5        0 2001.22159E+02  1736.400   111.791   833.248   624.925   247.243   440.150   477.071   411.386  1103.522     6.997     7.630     1.129     1.255     0.031     1.057   194.231     0.771     9.272 .00000E+00 0.000E+00 0.000E+00 0.000E+00     5
BIGSUB   6        0 2001.45493E+02  1736.400   111.912   713.224   555.608   190.000   414.811   430.267   386.899  1103.103     8.387     8.858     1.273     1.460     0.030     1.177   266.434     1.481    12.723 .00000E+00 0.000E+00 0.000E+00 0.000E+00     6
BIGSUB   7        0 2001.73380E+01  1736.400   111.823   713.628   554.372   190.000   420.368   428.214   391.199  1103.388     5.679     6.740     0.920     1.461     0.037     0.821   264.208     1.551    12.470 .00000E+00 0.000E+00 0.000E+00 0.000E+00     7
BIGSUB   8        0 2001.30848E+02  1736.400   111.973   713.116   556.710   190.000   429.500   103.066   393.496  1091.854     1.674     4.611     0.593     0.278     0.008     0.458   575.855     4.362    17.752 .00000E+00 0.000E+00 0.000E+00 0.000E+00     8
BIGSUB   9        0 2001.21993E+02  1736.400   111.774   856.528   631.958   263.467   224.032   156.425   203.928  1106.793     2.116     2.814     0.348     0.323     0.004     0.279   736.633     3.838     8.423 .00000E+00 0.000E+00 0.000E+00 0.000E+00     9
BIGSUB   1        0    1.36110E+02    86.900    42.212     5.597     2.664   190.000    43.897    61.520    31.016   106.132     6.230     6.617     1.244     0.476     0.014     0.601    11.961     0.115     0.677 .00000E+00 0.000E+00 0.000E+00 0.000E+00     1
BIGSUB   2        0    1.40731E+02    86.900    42.212     5.595     2.663   190.000    70.511    24.236    47.947    96.953     0.102     1.036     0.142     0.116     0.007     0.089    22.038     0.256     1.704 .00000E+00 0.000E+00 0.000E+00 0.000E+00     2
BIGSUB   3        0    1.16502E+02    86.900    42.212     5.670     2.696   190.000    54.912    46.282    38.267   102.593     0.225     1.059     0.158     0.337     0.012     0.106    15.934     0.173     1.091 .00000E+00 0.000E+00 0.000E+00 0.000E+00     3
BIGSUB   4        0    1.19820E+02    86.900    42.212     5.484     2.613   190.000    64.193    23.887    43.488    98.417     0.119     1.087     0.149     0.112     0.006     0.099    28.606     0.344     1.606 .00000E+00 0.000E+00 0.000E+00 0.000E+00     4
BIGSUB   5        0    1.22159E+02    86.900    42.212    10.349     6.304   247.243    44.290    59.824    31.406   106.201     0.318     1.188     0.186     0.370     0.011     0.122    13.307     0.099     0.495 .00000E+00 0.000E+00 0.000E+00 0.000E+00     5
BIGSUB   6        0    1.45493E+02    86.900    42.212     5.584     2.658   190.000    42.647    56.180    29.853   106.102     0.428     1.518     0.227     0.396     0.011     0.155    18.507     0.181     0.805 .00000E+00 0.000E+00 0.000E+00 0.000E+00     6
BIGSUB   7        0    1.73380E+01    86.900    42.212     5.677     2.699   190.000    42.668    56.395    29.832   106.122     0.351     1.167     0.163     0.398     0.012     0.118    18.313     0.210     0.787 .00000E+00 0.000E+00 0.000E+00 0.000E+00     7
BIGSUB   8        0    1.30848E+02    86.900    42.212     5.536     2.636   190.000    48.682    20.696    32.214   101.876     0.144     1.141     0.151     0.090     0.004     0.103    47.282     0.599     1.528 .00000E+00 0.000E+00 0.000E+00 0.000E+00     8
BIGSUB   9        0    1.21993E+02    86.900    42.212    11.264     7.005   263.467    30.011    27.488    18.953   106.464     0.192     0.900     0.113     0.081     0.002     0.083    59.196     0.531     0.877 .00000E+00 0.000E+00 0.000E+00 0.000E+00     9
BIGSUB   1        0    2.36110E+02   129.100    52.120    13.812     8.703   189.949    79.581    63.545    51.724   137.460    12.336     4.988     0.872     0.359     0.012     0.593    20.534     0.192     1.955 .00000E+00 0.000E+00 0.000E+00 0.000E+00     1
BIGSUB   2        0    2.40731E+02   129.100    52.125    13.815     8.685   189.953   108.985    20.925    76.991   133.730     0.258     1.408     0.190     0.099     0.006     0.131    33.125     0.355     4.063 .00000E+00 0.000E+00 0.000E+00 0.000E+00     2
BIGSUB   3        0    2.16502E+02   129.100    51.954    13.876     8.793   189.951    92.310    45.728    62.401   135.411     0.593     1.527     0.224     0.267     0.011     0.172    25.180     0.255     2.813 .00000E+00 0.000E+00 0.000E+00 0.000E+00     3
BIGSUB   4        0    2.19820E+02   129.100    52.225    13.725     8.661   189.940    99.107    20.592    70.028   135.787     0.308     1.493     0.202     0.094     0.005     0.146    42.755     0.471     3.771 .00000E+00 0.000E+00 0.000E+00 0.000E+00     4
BIGSUB   5        0    2.22159E+02   129.100    51.770    20.596    13.772   247.195    79.445    60.950    51.944   137.230     0.835     1.643     0.251     0.285     0.011     0.195    22.654     0.167     1.549 .00000E+00 0.000E+00 0.000E+00 0.000E+00     5
BIGSUB   6        0    2.45493E+02   129.100    52.206    13.805     8.724   189.945    75.374    56.448    49.624   138.781     1.089     2.052     0.301     0.312     0.011     0.236    31.121     0.290     2.023 .00000E+00 0.000E+00 0.000E+00 0.000E+00     6
BIGSUB   7        0    2.73380E+01   129.100    52.112    13.883     8.772   189.958    75.706    56.684    49.710   138.494     0.863     1.565     0.217     0.316     0.012     0.174    30.498     0.320     2.107 .00000E+00 0.000E+00 0.000E+00 0.000E+00     7
BIGSUB   8        0    2.30848E+02   129.100    52.444    13.769     8.638   189.940    74.382    17.438    52.695   140.969     0.370     1.489     0.195     0.071     0.003     0.142    69.123     0.767     3.175 .00000E+00 0.000E+00 0.000E+00 0.000E+00     8
BIGSUB   9        0    2.21993E+02   129.100    52.659    21.912    14.590   263.408    46.692    24.930    32.535   146.533     0.471     1.101     0.138     0.062     0.002     0.105    88.158     0.678     1.504 .00000E+00 0.000E+00 0.000E+00 0.000E+00     9
BIGSUB   1        0    3.36110E+02   200.100     0.000    66.892    35.174   180.150    40.944   119.251    60.246   199.032    23.022     8.178     1.303     0.735     0.025     1.092    17.341     0.149     2.741 .00000E+00 0.000E+00 0.000E+00 0.000E+00     1
BIGSUB   2        0    3.40731E+02   200.100     0.000    66.889    35.099   180.169    83.570    60.335    93.705   192.838     1.081     6.570     0.874     0.318     0.019     0.630    35.366     0.337     5.463 .00000E+00 0.000E+00 0.000E+00 0.000E+00     2
BIGSUB   3        0    3.16502E+02   200.100     0.000    66.957    35.406   180.096    58.056    95.274    74.180   196.834     1.785     5.621     0.798     0.621     0.027     0.661    24.655     0.225     3.859 .00000E+00 0.000E+00 0.000E+00 0.000E+00     3
BIGSUB   4        0    3.19820E+02   200.100     0.000    66.780    35.135   180.151    75.654    59.333    85.091   192.967     1.322     6.943     0.924     0.300     0.017     0.702    45.448     0.439     5.012 .00000E+00 0.000E+00 0.000E+00 0.000E+00     4
BIGSUB   5        0    3.22159E+02   200.100     0.000    71.281    41.602   237.297    41.551   116.858    60.474   198.534     2.324     5.113     0.761     0.621     0.024     0.660    18.986     0.130     2.242 .00000E+00 0.000E+00 0.000E+00 0.000E+00     5
BIGSUB   6        0    3.45493E+02   200.100     0.000    66.877    35.255   180.128    40.635   111.583    57.828   197.988     3.042     6.480     0.928     0.699     0.024     0.798    26.477     0.223     2.753 .00000E+00 0.000E+00 0.000E+00 0.000E+00     6
BIGSUB   7        0    3.73380E+01   200.100     0.000    66.964    35.317   180.121    40.639   111.808    57.993   197.990     2.417     5.072     0.694     0.717     0.026     0.594    26.076     0.226     2.877 .00000E+00 0.000E+00 0.000E+00 0.000E+00     7
BIGSUB   8        0    3.30848E+02   200.100     0.000    66.829    34.982   180.189    56.304    53.581    63.766   193.300     1.767     7.293     0.944     0.246     0.011     0.710    73.710     0.686     4.050 .00000E+00 0.000E+00 0.000E+00 0.000E+00     8
BIGSUB   9        0    3.21993E+02   200.100     0.000    72.127    42.234   253.704    31.644    64.204    38.615   194.104     1.845     4.909     0.613     0.187     0.004     0.470    90.023     0.565     1.760 .00000E+00 0.000E+00 0.000E+00 0.000E+00     9
BIGSUB   1        0    4.36110E+02    71.800     0.000    87.427    43.562   183.793     4.571    13.831    30.757    52.632     2.360     0.593     0.089     0.065     0.002     0.090     5.862     0.025     1.494 .00000E+00 0.000E+00 0.000E+00 0.000E+00     1
BIGSUB   2        0    4.40731E+02    71.800     0.000    87.433    43.750   183.989    13.648     1.056    57.955    71.769     0.016     0.088     0.012     0.004     0.000     0.009     9.235     0.056     3.745 .00000E+00 0.000E+00 0.000E+00 0.000E+00     2
BIGSUB   3        0    4.16502E+02    71.800     0.000    87.451    43.893   183.928     8.432     8.267    41.732    59.809     0.183     0.397     0.057     0.045     0.002     0.056     7.063     0.037     2.422 .00000E+00 0.000E+00 0.000E+00 0.000E+00     3
BIGSUB   4        0    4.19820E+02    71.800     0.000    87.411    43.791   183.698    11.330     0.874    52.207    68.063     0.016     0.079     0.011     0.003     0.000     0.009    11.799     0.066     3.345 .00000E+00 0.000E+00 0.000E+00 0.000E+00     4
BIGSUB   5        0    4.22159E+02    71.800     0.000    95.766    54.289   241.005     4.785    12.646    31.065    52.348     0.286     0.520     0.076     0.053     0.003     0.075     6.435     0.022     1.245 .00000E+00 0.000E+00 0.000E+00 0.000E+00     5
BIGSUB   6        0    4.45493E+02    71.800     0.000    87.431    43.863   183.472     4.348    10.836    30.074    51.852     0.335     0.597     0.085     0.056     0.002     0.082     8.844     0.035     1.447 .00000E+00 0.000E+00 0.000E+00 0.000E+00     6
BIGSUB   7        0    4.73380E+01    71.800     0.000    87.456    43.755   181.984     5.417    10.909    30.298    52.573     0.214     0.435     0.060     0.058     0.003     0.056     9.257     0.036     1.506 .00000E+00 0.000E+00 0.000E+00 0.000E+00     7
BIGSUB   8        0    4.30848E+02    71.800     0.000    87.426    43.669   182.025     6.101     0.502    38.291    59.789     0.010     0.047     0.006     0.002     0.000     0.005    18.669     0.076     2.387 .00000E+00 0.000E+00 0.000E+00 0.000E+00     8
BIGSUB   9        0    4.21993E+02    71.800     0.000    97.382    56.051   252.782     0.792     2.497    21.448    49.696     0.049     0.085     0.011     0.007     0.000     0.009    24.424     0.054     0.623 .00000E+00 0.000E+00 0.000E+00 0.000E+00     9
BIGSUB   1        0    5.36110E+02    81.000     0.000   130.072    76.729   171.718     0.016     9.163    11.550    30.075     2.616     0.397     0.060     0.026     0.000     0.065     7.437     0.011     0.134 .00000E+00 0.000E+00 0.000E+00 0.000E+00     1
BIGSUB   2        0    5.40731E+02    81.000     0.000   130.075    80.244   172.679     2.565     0.057    23.074    36.289     0.001     0.003     0.000     0.000     0.000     0.000     9.964     0.021     1.355 .00000E+00 0.000E+00 0.000E+00 0.000E+00     2
BIGSUB   3        0    5.16502E+02    81.000     0.000   130.089    79.968   171.465     0.814     4.818    16.313    31.816     0.115     0.232     0.033     0.015     0.001     0.035     8.227     0.015     0.567 .00000E+00 0.000E+00 0.000E+00 0.000E+00     3
BIGSUB   4        0    5.19820E+02    81.000     0.000   130.057    79.674   170.575     1.935     0.040    20.424    36.399     0.000     0.002     0.000     0.000     0.000     0.000    13.056     0.025     1.059 .00000E+00 0.000E+00 0.000E+00 0.000E+00     4
BIGSUB   5        0    5.22159E+02    81.000     0.000   145.718    93.646   226.655     0.000     7.639    11.697    29.567     0.184     0.319     0.046     0.018     0.001     0.048     8.287     0.009     0.144 .00000E+00 0.000E+00 0.000E+00 0.000E+00     5
BIGSUB   6        0    5.45493E+02    81.000     0.000   130.073    78.951   168.728     0.032     5.834    11.152    30.113     0.197     0.332     0.048     0.018     0.001     0.049    11.273     0.015     0.155 .00000E+00 0.000E+00 0.000E+00 0.000E+00     6
BIGSUB   7        0    5.73380E+01    81.000     0.000   130.091    78.231   167.392     0.024     5.862    11.704    31.246     0.100     0.214     0.030     0.019     0.001     0.030    11.808     0.016     0.222 .00000E+00 0.000E+00 0.000E+00 0.000E+00     7
BIGSUB   8        0    5.30848E+02    81.000     0.000   130.067    77.234   164.011     0.994     0.023    14.110    37.609     0.000     0.001     0.000     0.000     0.000     0.000    21.379     0.031     0.567 .00000E+00 0.000E+00 0.000E+00 0.000E+00     8
BIGSUB   9        0    5.21993E+02    81.000     0.000   148.747    92.597   230.248     0.000     0.791     6.843    38.008     0.015     0.024     0.003     0.002     0.000     0.003    29.194     0.025     0.015 .00000E+00 0.000E+00 0.000E+00 0.000E+00     9
BIGSUB   1        0    6.36110E+02   121.700     0.000   153.010   107.470   138.257     2.013    37.087     4.399    51.531     7.271     1.246     0.183     0.126     0.002     0.195     8.579     0.052     0.009 .00000E+00 0.000E+00 0.000E+00 0.000E+00     1
BIGSUB   2        0    6.40731E+02   121.700     0.000   152.973   112.586   138.984    18.849     8.929    17.773    44.302     0.116     0.640     0.084     0.020     0.001     0.067    15.059     0.025     0.432 .00000E+00 0.000E+00 0.000E+00 0.000E+00     2
BIGSUB   3        0    6.16502E+02   121.700     0.000   153.063   111.366   138.160     7.720    24.851     9.178    47.014     0.354     0.907     0.127     0.059     0.002     0.126    11.076     0.015     0.144 .00000E+00 0.000E+00 0.000E+00 0.000E+00     3
BIGSUB   4        0    6.19820E+02   121.700     0.000   152.798   111.721   137.537    15.682     7.911    15.029    44.648     0.127     0.615     0.081     0.018     0.001     0.068    19.428     0.027     0.338 .00000E+00 0.000E+00 0.000E+00 0.000E+00     4
BIGSUB   5        0    6.22159E+02   121.700     0.000   167.704   119.651   193.026     1.130    34.326     3.994    49.377     0.508     1.001     0.143     0.060     0.002     0.149     9.579     0.007     0.000 .00000E+00 0.000E+00 0.000E+00 0.000E+00     5
BIGSUB   6        0    6.45493E+02   121.700     0.000   152.953   109.995   134.474     1.769    30.865     4.164    49.714     0.600     1.162     0.163     0.073     0.002     0.164    13.272     0.013     0.016 .00000E+00 0.000E+00 0.000E+00 0.000E+00     6
BIGSUB   7        0    6.73380E+01   121.700     0.000   153.061   109.412   132.315     2.287    30.704     4.620    51.065     0.374     0.823     0.112     0.073     0.003     0.109    14.310     0.014     0.014 .00000E+00 0.000E+00 0.000E+00 0.000E+00     7
BIGSUB   8        0    6.30848E+02   121.700     0.000   152.854   109.399   130.977     8.230     5.228     8.863    47.501     0.092     0.417     0.055     0.012     0.001     0.046    31.772     0.037     0.145 .00000E+00 0.000E+00 0.000E+00 0.000E+00     8
BIGSUB   9        0    6.21993E+02   121.700     0.000   170.526   118.598   194.750     0.823     8.793     2.402    53.408     0.101     0.218     0.027     0.014     0.000     0.023    41.318     0.029     0.000 .00000E+00 0.000E+00 0.000E+00 0.000E+00     9
BIGSUB   1        0    7.36110E+02   102.300     0.000   127.218   100.548   122.141     0.000     8.739     1.601    20.928     1.754     0.164     0.024     0.021     0.000     0.026     9.431     0.014     0.000 .00000E+00 0.000E+00 0.000E+00 0.000E+00     1
BIGSUB   2        0    7.40731E+02   102.300     0.000   127.227   100.697   128.890     0.000     0.100     7.633    21.889     0.001     0.004     0.000     0.000     0.000     0.000    12.032     0.013     0.002 .00000E+00 0.000E+00 0.000E+00 0.000E+00     2
BIGSUB   3        0    7.16502E+02   102.300     0.000   127.212    99.515   126.517     0.000     4.627     3.718    20.040     0.050     0.085     0.012     0.012     0.001     0.013    10.148     0.010     0.000 .00000E+00 0.000E+00 0.000E+00 0.000E+00     3
BIGSUB   4        0    7.19820E+02   102.300     0.000   127.259    99.957   124.496     0.000     0.030     6.430    24.273     0.000     0.001     0.000     0.000     0.000     0.000    15.918     0.017     0.000 .00000E+00 0.000E+00 0.000E+00 0.000E+00     4
BIGSUB   5        0    7.22159E+02   102.300     0.000   144.985   108.461   179.464     0.000     7.107     1.366    20.190     0.076     0.115     0.016     0.013     0.001     0.018    10.557     0.007     0.000 .00000E+00 0.000E+00 0.000E+00 0.000E+00     5
BIGSUB   6        0    7.45493E+02   102.300     0.000   127.231    98.438   119.190     0.000     5.374     1.494    22.225     0.081     0.118     0.017     0.014     0.001     0.018    14.243     0.014     0.000 .00000E+00 0.000E+00 0.000E+00 0.000E+00     6
BIGSUB   7        0    7.73380E+01   102.300     0.000   127.213    98.173   116.474     0.000     5.595     1.700    23.293     0.039     0.074     0.010     0.015     0.001     0.011    14.867     0.017     0.000 .00000E+00 0.000E+00 0.000E+00 0.000E+00     7
BIGSUB   8        0    7.30848E+02   102.300     0.000   127.250    97.928   109.711     0.000     0.017     3.679    31.548     0.000     0.001     0.000     0.000     0.000     0.000    26.513     0.032     0.000 .00000E+00 0.000E+00 0.000E+00 0.000E+00     8
BIGSUB   9        0    7.21993E+02   102.300     0.000   148.425   108.242   165.633     0.000     0.619     0.832    38.751     0.004     0.006     0.001     0.001     0.000     0.001    36.597     0.031     0.000 .00000E+00 0.000E+00 0.000E+00 0.000E+00     9
BIGSUB   1        0    8.36110E+02   332.300     0.000   114.285    98.897   145.396    11.299   180.388     5.902   205.414    24.556     3.264     0.460     0.408     0.007     0.474    18.229     0.027     0.038 .00000E+00 0.000E+00 0.000E+00 0.000E+00     1
BIGSUB   2        0    8.40731E+02   332.300     0.000   114.303    99.488   154.616    77.665    86.522    42.096   172.962     0.484     4.252     0.550     0.194     0.009     0.438    42.450     0.144     0.577 .00000E+00 0.000E+00 0.000E+00 0.000E+00     2
BIGSUB   3        0    8.16502E+02   332.300     0.000   114.299    98.418   150.636    38.228   142.973    20.320   192.845     0.809     2.993     0.402     0.326     0.012     0.388    28.257     0.079     0.248 .00000E+00 0.000E+00 0.000E+00 0.000E+00     3
BIGSUB   4        0    8.19820E+02   332.300     0.000   114.326    99.137   153.442    68.167    80.400    36.793   173.988     0.519     4.051     0.525     0.182     0.008     0.443    55.114     0.171     0.474 .00000E+00 0.000E+00 0.000E+00 0.000E+00     4
BIGSUB   5        0    8.22159E+02   332.300     0.000   132.298   105.417   204.081    13.504   176.307     6.840   204.197     1.073     2.520     0.350     0.291     0.009     0.372    20.146     0.020     0.015 .00000E+00 0.000E+00 0.000E+00 0.000E+00     5
[...]
BIGSUB   6        0    6.45493E+02   212.300     0.000   133.344    96.012   153.761    34.396    92.583    44.538   167.988     8.215    14.353     1.939     0.252     0.015     1.974    29.060     0.171     2.553 .00000E+00 0.000E+00 0.000E+00 0.000E+00     6
BIGSUB   7        0    6.73380E+01   212.300     0.000   133.408    95.836   152.890    35.150    92.871    45.209   168.906     7.326    12.479     1.648     0.258     0.023     1.634    29.002     0.178     2.638 .00000E+00 0.000E+00 0.000E+00 0.000E+00     7
BIGSUB   8        0    6.30848E+02   212.300     0.000   133.286    95.033   153.947    46.657    41.672    53.941   172.574     5.173    26.423     3.343     0.102     0.011     2.740    75.002     0.522     3.426 .00000E+00 0.000E+00 0.000E+00 0.000E+00     8
BIGSUB   9        0    6.21993E+02   212.300     0.000   149.314   104.645   227.611    23.738    50.978    28.355   172.683     6.288    20.450     2.518     0.091     0.004     1.957    92.266     0.433     1.063 .00000E+00 0.000E+00 0.000E+00 0.000E+00     9
BIGSUB   1        0    7.36110E+02   193.500     0.000   133.534   101.514   173.843     0.739    58.168    17.465    91.302    11.657     2.087     0.293     0.818     0.005     0.329    13.796     0.093     0.624 .00000E+00 0.000E+00 0.000E+00 0.000E+00     1
BIGSUB   2        0    7.40731E+02   193.500     0.000   133.527   105.636   181.212    24.242    11.134    35.464    72.605     0.173     1.537     0.207     0.025     0.004     0.191    22.901     0.024     1.546 .00000E+00 0.000E+00 0.000E+00 0.000E+00     2
BIGSUB   3        0    7.16502E+02   193.500     0.000   133.546   103.326   178.418     8.902    37.826    24.314    81.788     0.679     1.809     0.255     0.085     0.008     0.282    17.264     0.017     0.853 .00000E+00 0.000E+00 0.000E+00 0.000E+00     3
BIGSUB   4        0    7.19820E+02   193.500     0.000   133.489   104.963   179.894    20.436     9.468    31.529    73.906     0.171     1.339     0.180     0.021     0.003     0.177    30.122     0.030     1.234 .00000E+00 0.000E+00 0.000E+00 0.000E+00     4
BIGSUB   5        0    7.22159E+02   193.500     0.000   149.829   110.952   231.331     0.438    53.951    17.081    88.421     1.017     1.790     0.256     0.089     0.007     0.293    15.514     0.011     0.342 .00000E+00 0.000E+00 0.000E+00 0.000E+00     5
BIGSUB   6        0    7.45493E+02   193.500     0.000   133.522   102.168   172.942     1.181    47.948    16.580    87.799     1.179     2.122     0.295     0.109     0.006     0.319    21.485     0.021     0.390 .00000E+00 0.000E+00 0.000E+00 0.000E+00     6
BIGSUB   7        0    7.73380E+01   193.500     0.000   133.546   101.818   170.700     1.366    47.799    16.811    89.529     0.727     1.629     0.223     0.110     0.011     0.239    23.113     0.025     0.507 .00000E+00 0.000E+00 0.000E+00 0.000E+00     7
BIGSUB   8        0    7.30848E+02   193.500     0.000   133.502   103.723   173.707    10.456     5.769    21.546    79.834     0.117     0.879     0.118     0.013     0.002     0.113    50.524     0.052     0.727 .00000E+00 0.000E+00 0.000E+00 0.000E+00     8
BIGSUB   9        0    7.21993E+02   193.500     0.000   152.976   112.776   235.630     0.701    12.441    10.102    90.187     0.177     0.403     0.050     0.021     0.000     0.041    66.567     0.048     0.081 .00000E+00 0.000E+00 0.000E+00 0.000E+00     9
BIGSUB   1        0    8.36110E+02   230.100     0.000    89.607    81.667   188.790    34.961    78.810    15.645   114.048    13.506     1.644     0.227     0.189     0.006     0.253    17.996     0.034     0.499 .00000E+00 0.000E+00 0.000E+00 0.000E+00     1
BIGSUB   2        0    8.40731E+02   230.100     0.000    89.642    81.396   188.811    84.806    19.362    53.607   110.197     0.200     1.517     0.203     0.045     0.005     0.189    34.287     0.081     0.730 .00000E+00 0.000E+00 0.000E+00 0.000E+00     2
BIGSUB   3        0    8.16502E+02   230.100     0.000    89.591    81.161   188.805    57.654    54.346    31.010   111.956     0.531     1.513     0.210     0.131     0.010     0.229    24.452     0.051     0.443 .00000E+00 0.000E+00 0.000E+00 0.000E+00     3
BIGSUB   4        0    8.19820E+02   230.100     0.000    89.753    81.331   188.794    74.645    18.118    46.724   111.180     0.249     1.685     0.225     0.042     0.005     0.219    43.712     0.101     0.622 .00000E+00 0.000E+00 0.000E+00 0.000E+00     4
BIGSUB   5        0    8.22159E+02   230.100     0.000   106.777    88.209   246.033    37.436    75.285    16.126   112.781     0.754     1.322     0.187     0.133     0.008     0.215    19.771     0.021     0.184 .00000E+00 0.000E+00 0.000E+00 0.000E+00     5
BIGSUB   6        0    8.45493E+02   230.100     0.000    89.655    80.906   188.818    35.168    68.022    15.682   112.851     0.908     1.680     0.230     0.173     0.007     0.245    27.618     0.046     0.228 .00000E+00 0.000E+00 0.000E+00 0.000E+00     6
BIGSUB   7        0    8.73380E+01   230.100     0.000    89.597    79.950   185.027    38.494    65.984    17.647   114.484     0.548     1.249     0.169     0.169     0.013     0.178    29.291     0.047     0.280 .00000E+00 0.000E+00 0.000E+00 0.000E+00     7
BIGSUB   8        0    8.30848E+02   230.100     0.000    89.725    80.865   188.832    47.582    13.106    28.544   111.876     0.193     1.295     0.170     0.032     0.003     0.158    68.398     0.175     0.389 .00000E+00 0.000E+00 0.000E+00 0.000E+00     8
BIGSUB   9        0    8.21993E+02   230.100     0.000   110.118    88.738   262.362    13.909    20.831     7.147   111.987     0.180     0.540     0.067     0.042     0.001     0.053    83.107     0.118     0.100 .00000E+00 0.000E+00 0.000E+00 0.000E+00     9
BIGSUB   1        0    9.36110E+02    53.400     0.000    60.918    55.188   178.761     0.000     3.525    17.105    29.220     0.505     0.049     0.007     0.010     0.000     0.007     7.198     0.014     0.277 .00000E+00 0.000E+00 0.000E+00 0.000E+00     1
BIGSUB   2        0    9.40731E+02    53.400     0.000    60.940    54.797   181.469     0.000     0.002    40.795    54.002     0.000     0.000     0.000     0.000     0.000     0.000    10.426     0.024     0.399 .00000E+00 0.000E+00 0.000E+00 0.000E+00     2
BIGSUB   3        0    9.16502E+02    53.400     0.000    60.937    54.664   180.645     0.000     1.861    27.505    39.646     0.008     0.026     0.004     0.005     0.000     0.004     8.313     0.017     0.216 .00000E+00 0.000E+00 0.000E+00 0.000E+00     3
BIGSUB   4        0    9.19820E+02    53.400     0.000    60.965    54.705   179.623     0.000     0.000    35.772    51.561     0.000     0.000     0.000     0.000     0.000     0.000    13.320     0.032     0.319 .00000E+00 0.000E+00 0.000E+00 0.000E+00     4
BIGSUB   5        0    9.22159E+02    53.400     0.000    72.542    59.521   236.650     0.000     2.986    18.102    30.362     0.013     0.034     0.005     0.005     0.000     0.006     7.868     0.009     0.069 .00000E+00 0.000E+00 0.000E+00 0.000E+00     5
BIGSUB   6        0    9.45493E+02    53.400     0.000    60.944    54.712   178.157     0.000     2.268    17.227    31.478     0.016     0.040     0.006     0.006     0.000     0.006    10.639     0.021     0.127 .00000E+00 0.000E+00 0.000E+00 0.000E+00     6
BIGSUB   7        0    9.73380E+01    53.400     0.000    60.945    54.297   174.506     0.000     2.216    18.177    32.333     0.008     0.027     0.004     0.006     0.001     0.004    10.551     0.018     0.121 .00000E+00 0.000E+00 0.000E+00 0.000E+00     7
BIGSUB   8        0    9.30848E+02    53.400     0.000    60.969    54.678   174.401     0.000     0.000    22.843    45.113     0.000     0.000     0.000     0.000     0.000     0.000    20.592     0.060     0.237 .00000E+00 0.000E+00 0.000E+00 0.000E+00     8
BIGSUB   9        0    9.21993E+02    53.400     0.000    74.802    60.563   242.571     0.000     0.329     7.339    34.974     0.003     0.006     0.001     0.001     0.000     0.001    26.554     0.053     0.058 .00000E+00 0.000E+00 0.000E+00 0.000E+00     9
BIGSUB   1        0   10.36110E+02    73.700     0.000    36.677    32.934   182.591    14.433    14.911     8.099    31.998     2.910     0.224     0.031     0.039     0.001     0.034     7.786     0.015     0.096 .00000E+00 0.000E+00 0.000E+00 0.000E+00     1
BIGSUB   2        0   10.40731E+02    73.700     0.000    36.701    32.829   182.646    27.093     1.204    19.156    34.346     0.008     0.063     0.008     0.003     0.000     0.008    11.521     0.033     0.181 .00000E+00 0.000E+00 0.000E+00 0.000E+00     2
BIGSUB   3        0   10.16502E+02    73.700     0.000    36.730    32.689   182.616    20.946     9.138    13.109    33.083     0.064     0.148     0.021     0.025     0.002     0.023     9.105     0.022     0.091 .00000E+00 0.000E+00 0.000E+00 0.000E+00     3
BIGSUB   4        0   10.19820E+02    73.700     0.000    36.681    32.677   182.374    22.792     1.091    16.499    34.395     0.009     0.060     0.008     0.003     0.000     0.008    14.621     0.034     0.139 .00000E+00 0.000E+00 0.000E+00 0.000E+00     4
BIGSUB   5        0   10.22159E+02    73.700     0.000    45.465    36.800   239.957    15.732    13.797     8.772    32.402     0.100     0.169     0.024     0.028     0.002     0.027     8.610     0.011     0.021 .00000E+00 0.000E+00 0.000E+00 0.000E+00     5
BIGSUB   6        0   10.45493E+02    73.700     0.000    36.701    32.686   182.615    13.526    11.652     8.011    32.535     0.123     0.220     0.030     0.031     0.001     0.032    11.705     0.022     0.046 .00000E+00 0.000E+00 0.000E+00 0.000E+00     6
BIGSUB   7        0   10.73380E+01    73.700     0.000    36.741    32.479   176.979    15.681    11.202     8.834    33.476     0.068     0.153     0.021     0.031     0.003     0.022    12.229     0.022     0.050 .00000E+00 0.000E+00 0.000E+00 0.000E+00     7
BIGSUB   8        0   10.30848E+02    73.700     0.000    36.708    32.587   180.090    12.497     0.640     9.937    34.968     0.006     0.037     0.005     0.002     0.000     0.005    22.923     0.044     0.069 .00000E+00 0.000E+00 0.000E+00 0.000E+00     8
BIGSUB   9        0   10.21993E+02    73.700     0.000    47.179    37.694   250.190     2.102     2.429     2.613    35.670     0.022     0.043     0.005     0.005     0.000     0.004    29.996     0.033     0.016 .00000E+00 0.000E+00 0.000E+00 0.000E+00     9
BIGSUB   1        0   11.36110E+02    57.500     0.000    16.548    15.184   189.139     8.402     6.252    11.380    23.277     0.716     0.060     0.008     0.016     0.000     0.009     4.637     0.013     0.183 .00000E+00 0.000E+00 0.000E+00 0.000E+00     1
BIGSUB   2        0   11.40731E+02    57.500     0.000    16.555    15.084   189.138    12.410     0.583    21.143    30.420     0.003     0.020     0.003     0.001     0.000     0.002     6.636     0.025     0.240 .00000E+00 0.000E+00 0.000E+00 0.000E+00     2
BIGSUB   3        0   11.16502E+02    57.500     0.000    16.616    15.059   189.132    10.429     3.810    16.276    26.827     0.016     0.036     0.005     0.010     0.001     0.005     5.283     0.016     0.136 .00000E+00 0.000E+00 0.000E+00 0.000E+00     3
BIGSUB   4        0   11.19820E+02    57.500     0.000    16.468    15.001   189.144    10.633     0.522    18.005    28.653     0.002     0.013     0.002     0.001     0.000     0.002     8.311     0.025     0.181 .00000E+00 0.000E+00 0.000E+00 0.000E+00     4
BIGSUB   5        0   11.22159E+02    57.500     0.000    20.382    16.710   246.374     8.743     5.798    12.257    24.159     0.025     0.042     0.006     0.011     0.001     0.006     5.069     0.008     0.034 .00000E+00 0.000E+00 0.000E+00 0.000E+00     5
BIGSUB   6        0   11.45493E+02    57.500     0.000    16.547    15.137   189.137     7.567     5.023    10.703    23.496     0.036     0.065     0.009     0.013     0.001     0.009     6.794     0.018     0.076 .00000E+00 0.000E+00 0.000E+00 0.000E+00     6
BIGSUB   7        0   11.73380E+01    57.500     0.000    16.624    15.073   183.322     8.095     4.758    12.089    24.630     0.023     0.046     0.006     0.012     0.001     0.006     6.757     0.015     0.083 .00000E+00 0.000E+00 0.000E+00 0.000E+00     7
BIGSUB   8        0   11.30848E+02    57.500     0.000    16.514    15.181   187.278     5.979     0.302    10.218    24.235     0.001     0.008     0.001     0.001     0.000     0.001    12.521     0.030     0.061 .00000E+00 0.000E+00 0.000E+00 0.000E+00     8
BIGSUB   9        0   11.21993E+02    57.500     0.000    21.130    17.410   257.248     1.236     1.188     2.125    19.912     0.010     0.018     0.002     0.002     0.000     0.002    16.117     0.023     0.004 .00000E+00 0.000E+00 0.000E+00 0.000E+00     9
BIGSUB   1        0   12.36110E+02    84.000     0.000     3.336     2.743   189.282    17.026     5.186    15.477    26.536     0.698     0.051     0.007     0.013     0.000     0.008     4.919     0.030     0.413 .00000E+00 0.000E+00 0.000E+00 0.000E+00     1
BIGSUB   2        0   12.40731E+02    84.000     0.000     3.334     2.515   189.423    20.358     0.299    20.705    29.535     0.001     0.010     0.001     0.001     0.000     0.001     6.680     0.055     0.429 .00000E+00 0.000E+00 0.000E+00 0.000E+00     2
BIGSUB   3        0   12.16502E+02    84.000     0.000     3.390     2.514   189.432    18.825     3.025    18.224    28.064     0.014     0.031     0.004     0.008     0.001     0.005     5.468     0.038     0.278 .00000E+00 0.000E+00 0.000E+00 0.000E+00     3
BIGSUB   4        0   12.19820E+02    84.000     0.000     3.247     2.468   189.430    18.497     0.286    18.261    28.764     0.001     0.010     0.001     0.001     0.000     0.001     8.591     0.074     0.366 .00000E+00 0.000E+00 0.000E+00 0.000E+00     4
BIGSUB   5        0   12.22159E+02    84.000     0.000     7.508     5.297   246.712    17.222     4.703    15.835    26.935     0.023     0.037     0.005     0.009     0.001     0.006     5.414     0.019     0.112 .00000E+00 0.000E+00 0.000E+00 0.000E+00     5
BIGSUB   6        0   12.45493E+02    84.000     0.000     3.325     2.575   189.393    16.007     3.970    14.318    26.503     0.029     0.050     0.007     0.010     0.000     0.007     7.298     0.044     0.228 .00000E+00 0.000E+00 0.000E+00 0.000E+00     6
BIGSUB   7        0   12.73380E+01    84.000     0.000     3.395     2.599   185.993    15.027     3.763    14.378    25.145     0.017     0.035     0.005     0.010     0.001     0.005     6.042     0.021     0.190 .00000E+00 0.000E+00 0.000E+00 0.000E+00     7
BIGSUB   8        0   12.30848E+02    84.000     0.000     3.287     2.647   189.351    12.559     0.166    11.396    25.266     0.001     0.006     0.001     0.000     0.000     0.001    12.649     0.116     0.205 .00000E+00 0.000E+00 0.000E+00 0.000E+00     8
BIGSUB   9        0   12.21993E+02    84.000     0.000     8.316     6.206   262.681     5.741     0.909     4.032    20.381     0.006     0.011     0.001     0.002     0.000     0.001    15.030     0.066     0.089 .00000E+00 0.000E+00 0.000E+00 0.000E+00     9
BIGSUB   1        0 2010.36110E+02  1454.500   129.225   674.537   512.540   189.282   286.648   454.557   291.838   896.370    96.051    41.785     5.987     2.630     0.069     5.624   131.762     0.929    15.636 .00000E+00 0.000E+00 0.000E+00 0.000E+00     1
BIGSUB   2        0 2010.40731E+02  1454.500   129.240   674.578   520.747   189.423   509.642   134.236   510.952   897.738     4.271    31.916     4.229     0.424     0.051     3.683   221.177     1.552    24.371 .00000E+00 0.000E+00 0.000E+00 0.000E+00     2
BIGSUB   3        0 2010.16502E+02  1454.500   129.180   674.939   518.516   189.432   381.477   319.933   384.839   894.209     8.815    28.433     3.952     1.181     0.087     3.990   165.638     1.068    16.812 .00000E+00 0.000E+00 0.000E+00 0.000E+00     3
BIGSUB   4        0 2010.19820E+02  1454.500   129.348   674.059   519.130   189.430   453.457   129.104   455.068   896.581     5.024    33.259     4.390     0.404     0.044     3.947   284.372     1.992    21.518 .00000E+00 0.000E+00 0.000E+00 0.000E+00     4
BIGSUB   5        0 2010.22159E+02  1454.500   129.148   791.757   586.842   246.712   290.300   432.871   295.294   891.893    12.151    24.336     3.513     1.243     0.076     3.744   145.316     0.655     9.407 .00000E+00 0.000E+00 0.000E+00 0.000E+00     5
BIGSUB   6        0 2010.45493E+02  1454.500   129.252   674.527   516.360   189.393   274.417   394.966   279.114   891.623    16.380    33.564     4.623     1.430     0.070     4.638   200.083     1.120    11.098 .00000E+00 0.000E+00 0.000E+00 0.000E+00     6
BIGSUB   7        0 2010.73380E+01  1454.500   129.178   674.991   514.091   185.993   281.859   392.653   286.429   897.443    13.377    27.626     3.701     1.454     0.105     3.650   200.572     1.090    11.849 .00000E+00 0.000E+00 0.000E+00 0.000E+00     7
BIGSUB   8        0 2010.30848E+02  1454.500   129.307   674.334   515.890   189.351   310.932   105.790   314.187   893.694     6.894    39.317     5.017     0.324     0.030     4.163   454.105     3.023    15.390 .00000E+00 0.000E+00 0.000E+00 0.000E+00     8
BIGSUB   9        0 2010.21993E+02  1454.500   129.138   814.458   596.639   262.681   147.252   155.921   152.933   891.443     8.922    30.060     3.704     0.333     0.012     2.899   572.688     2.399     4.767 .00000E+00 0.000E+00 0.000E+00 0.000E+00     9
BIGSUB   1        0 11.0.36110E+02  1576.827   128.449   752.540   553.452   189.282   355.337   502.467   329.769  1005.956   150.099    48.607     6.943     3.283     0.063     5.988   156.273     0.956    13.055 .00000E+00 0.000E+00 0.000E+00 0.000E+00     1
BIGSUB   2        0 11.0.40731E+02  1576.827   128.450   752.556   565.536   189.423   599.524   146.554   557.934   989.806    17.387    45.610     5.747     0.520     0.040     4.281   255.909     1.767    23.478 .00000E+00 0.000E+00 0.000E+00 0.000E+00     2
BIGSUB   3        0 11.0.16502E+02  1576.827   128.353   753.040   561.037   189.432   459.405   353.617   426.895   996.519    38.096    37.813     4.918     1.423     0.073     4.363   193.467     1.224    16.391 .00000E+00 0.000E+00 0.000E+00 0.000E+00     3
BIGSUB   4        0 11.0.19820E+02  1576.827   128.571   751.831   564.761   189.430   533.234   139.945   495.996   991.685    20.989    46.428     5.852     0.489     0.035     4.606   329.583     2.285    21.052 .00000E+00 0.000E+00 0.000E+00 0.000E+00     4
BIGSUB   5        0 11.0.22159E+02  1576.827   128.278   870.620   631.076   246.712   359.704   478.426   333.890  1002.607    52.531    29.441     3.956     1.496     0.065     3.781   172.634     0.719     8.997 .00000E+00 0.000E+00 0.000E+00 0.000E+00     5
BIGSUB   6        0 11.0.45493E+02  1576.827   128.482   752.479   558.058   189.393   338.489   433.687   314.119  1001.721    97.092    39.872     5.222     1.699     0.062     4.835   237.296     1.316    11.537 .00000E+00 0.000E+00 0.000E+00 0.000E+00     6
BIGSUB   7        0 11.0.73380E+01  1576.827   128.393   753.093   557.028   185.993   343.459   430.098   318.850  1003.061   107.240    33.732     4.325     1.714     0.086     3.928   237.256     1.314    11.723 .00000E+00 0.000E+00 0.000E+00 0.000E+00     7
BIGSUB   8        0 11.0.30848E+02  1576.827   128.592   752.180   558.621   189.351   368.719   111.860   342.579  1000.882    36.459    51.047     6.358     0.379     0.023     4.871   528.331     3.747    16.361 .00000E+00 0.000E+00 0.000E+00 0.000E+00     8
BIGSUB   9        0 11.0.21993E+02  1576.827   128.498   893.454   641.208   262.681   182.494   161.999   169.206  1012.717    70.384    33.412     4.106     0.366     0.010     3.161   672.513     3.141     6.558 .00000E+00 0.000E+00 0.000E+00 0.000E+00     9
