1
    SWAT Mar 4 2014    VER 2012/Rev 622                                                                  0/ 0/   0      0: 0: 0

    General Input/Output section (file.cio):                                        
    3/13/2014 12:00:00 AM ARCGIS-SWAT interface AV                                  
                                                                                    


LULC  HRU       GIS  SUB  MGT  MON   AREAkm2  PRECIPmm
PAST    1 000010001    1    0    1.23853E+01   121.800
PAST    1 000010001    1    0    2.23853E+01   182.300
PAST    1 000010001    1    0    3.23853E+01   258.400
PAST    1 000010001    1    0    4.23853E+01    32.100
PAST    1 000010001    1    0    5.23853E+01   147.900
PAST    1 000010001    1    0    6.23853E+01    83.500
PAST    1 000010001    1    0    7.23853E+01   157.100
PAST    1 000010001    1    0    8.23853E+01   170.400
PAST    1 000010001    1    0    9.23853E+01   157.100
PAST    1 000010001    1    0   10.23853E+01   125.200
PAST    1 000010001    1    0   11.23853E+01    64.300
PAST    1 000010001    1    0   12.23853E+01   104.100
PAST    1 000010001    1    0 2000.23853E+01  1604.200
PAST    1 000010001    1    0    1.23853E+01    50.200
PAST    1 000010001    1    0    2.23853E+01   116.500
PAST    1 000010001    1    0    3.23853E+01   162.000
PAST    1 000010001    1    0    4.23853E+01   135.800
PAST    1 000010001    1    0    5.23853E+01   101.400
PAST    1 000010001    1    0    6.23853E+01   214.800
PAST    1 000010001    1    0    7.23853E+01   125.700
PAST    1 000010001    1    0    8.23853E+01   176.100
PAST    1 000010001    1    0    9.23853E+01   288.100
PAST    1 000010001    1    0   10.23853E+01    46.400
PAST    1 000010001    1    0   11.23853E+01   132.000
PAST    1 000010001    1    0   12.23853E+01   187.400
PAST    1 000010001    1    0 2001.23853E+01  1736.400
PAST    1 000010001    1    0    1.23853E+01    86.900
PAST    1 000010001    1    0    2.23853E+01   129.100
PAST    1 000010001    1    0    3.23853E+01   200.100
PAST    1 000010001    1    0    4.23853E+01    71.800
PAST    1 000010001    1    0    5.23853E+01    81.000
PAST    1 000010001    1    0    6.23853E+01   121.700
PAST    1 000010001    1    0    7.23853E+01   102.300
PAST    1 000010001    1    0    8.23853E+01   332.300
PAST    1 000010001    1    0    9.23853E+01   171.400
PAST    1 000010001    1    0   10.23853E+01   179.500
PAST    1 000010001    1    0   11.23853E+01   176.300
PAST    1 000010001    1    0   12.23853E+01   153.500
PAST    1 000010001    1    0 2002.23853E+01  1805.900
PAST    1 000010001    1    0    1.23853E+01   148.400
PAST    1 000010001    1    0    2.23853E+01    34.800
PAST    1 000010001    1    0    3.23853E+01    58.300
PAST    1 000010001    1    0    4.23853E+01    47.200
PAST    1 000010001    1    0    5.23853E+01   122.900
PAST    1 000010001    1    0    6.23853E+01    76.800
PAST    1 000010001    1    0    7.23853E+01   173.700
PAST    1 000010001    1    0    8.23853E+01    80.500
PAST    1 000010001    1    0    9.23853E+01   140.200
PAST    1 000010001    1    0   10.23853E+01   153.500
PAST    1 000010001    1    0   11.23853E+01    38.900
PAST    1 000010001    1    0   12.23853E+01    68.400
PAST    1 000010001    1    0 2003.23853E+01  1143.600
PAST    1 000010001    1    0    1.23853E+01   174.600
PAST    1 000010001    1    0    2.23853E+01    96.100
PAST    1 000010001    1    0    3.23853E+01    88.800
PAST    1 000010001    1    0    4.23853E+01    71.100
PAST    1 000010001    1    0    5.23853E+01   152.500
PAST    1 000010001    1    0    6.23853E+01   236.700
PAST    1 000010001    1    0    7.23853E+01   208.100
PAST    1 000010001    1    0    8.23853E+01   139.800
PAST    1 000010001    1    0    9.23853E+01   173.000
PAST    1 000010001    1    0   10.23853E+01    71.400
PAST    1 000010001    1    0   11.23853E+01    95.600
PAST    1 000010001    1    0   12.23853E+01    25.300
PAST    1 000010001    1    0 2004.23853E+01  1533.000
PAST    1 000010001    1    0    1.23853E+01   153.900
PAST    1 000010001    1    0    2.23853E+01   163.500
PAST    1 000010001    1    0    3.23853E+01    78.900
PAST    1 000010001    1    0    4.23853E+01   161.800
PAST    1 000010001    1    0    5.23853E+01   135.100
PAST    1 000010001    1    0    6.23853E+01    98.000
PAST    1 000010001    1    0    7.23853E+01   261.000
PAST    1 000010001    1    0    8.23853E+01   275.100
PAST    1 000010001    1    0    9.23853E+01    93.900
PAST    1 000010001    1    0   10.23853E+01    20.400
PAST    1 000010001    1    0   11.23853E+01    78.000
PAST    1 000010001    1    0   12.23853E+01   164.300
PAST    1 000010001    1    0 2005.23853E+01  1683.900
PAST    1 000010001    1    0    1.23853E+01   111.200
PAST    1 000010001    1    0    2.23853E+01   110.300
PAST    1 000010001    1    0    3.23853E+01   166.700
PAST    1 000010001    1    0    4.23853E+01   133.900
PAST    1 000010001    1    0    5.23853E+01   176.200
PAST    1 000010001    1    0    6.23853E+01   128.900
PAST    1 000010001    1    0    7.23853E+01   108.800
PAST    1 000010001    1    0    8.23853E+01   273.700
PAST    1 000010001    1    0    9.23853E+01   107.000
PAST    1 000010001    1    0   10.23853E+01    68.600
PAST    1 000010001    1    0   11.23853E+01   143.800
PAST    1 000010001    1    0   12.23853E+01    48.600
PAST    1 000010001    1    0 2006.23853E+01  1577.700
PAST    1 000010001    1    0    1.23853E+01   104.300
PAST    1 000010001    1    0    2.23853E+01   147.500
PAST    1 000010001    1    0    3.23853E+01    92.400
PAST    1 000010001    1    0    4.23853E+01    10.900
PAST    1 000010001    1    0    5.23853E+01   231.900
PAST    1 000010001    1    0    6.23853E+01   128.400
PAST    1 000010001    1    0    7.23853E+01   195.900
PAST    1 000010001    1    0    8.23853E+01   177.100
PAST    1 000010001    1    0    9.23853E+01   267.200
PAST    1 000010001    1    0   10.23853E+01   100.400
PAST    1 000010001    1    0   11.23853E+01   194.300
PAST    1 000010001    1    0   12.23853E+01    99.500
PAST    1 000010001    1    0 2007.23853E+01  1749.800
PAST    1 000010001    1    0    1.23853E+01    72.600
PAST    1 000010001    1    0    2.23853E+01    56.300
PAST    1 000010001    1    0    3.23853E+01   187.500
PAST    1 000010001    1    0    4.23853E+01   145.600
PAST    1 000010001    1    0    5.23853E+01    41.100
PAST    1 000010001    1    0    6.23853E+01   129.800
PAST    1 000010001    1    0    7.23853E+01   121.700
PAST    1 000010001    1    0    8.23853E+01   122.700
PAST    1 000010001    1    0    9.23853E+01   101.900
PAST    1 000010001    1    0   10.23853E+01    68.700
PAST    1 000010001    1    0   11.23853E+01    86.200
PAST    1 000010001    1    0   12.23853E+01   124.100
PAST    1 000010001    1    0 2008.23853E+01  1258.200
PAST    1 000010001    1    0    1.23853E+01    31.100
PAST    1 000010001    1    0    2.23853E+01   205.400
PAST    1 000010001    1    0    3.23853E+01   233.700
PAST    1 000010001    1    0    4.23853E+01    31.400
PAST    1 000010001    1    0    5.23853E+01   147.700
PAST    1 000010001    1    0    6.23853E+01   324.500
PAST    1 000010001    1    0    7.23853E+01   183.300
PAST    1 000010001    1    0    8.23853E+01   184.700
PAST    1 000010001    1    0    9.23853E+01    89.200
PAST    1 000010001    1    0   10.23853E+01   142.800
PAST    1 000010001    1    0   11.23853E+01   103.200
PAST    1 000010001    1    0   12.23853E+01   120.900
PAST    1 000010001    1    0 2009.23853E+01  1797.900
PAST    1 000010001    1    0    1.23853E+01    74.100
PAST    1 000010001    1    0    2.23853E+01    87.500
PAST    1 000010001    1    0    3.23853E+01   126.200
PAST    1 000010001    1    0    4.23853E+01    66.400
PAST    1 000010001    1    0    5.23853E+01   195.800
PAST    1 000010001    1    0    6.23853E+01   212.300
PAST    1 000010001    1    0    7.23853E+01   193.500
PAST    1 000010001    1    0    8.23853E+01   230.100
PAST    1 000010001    1    0    9.23853E+01    53.400
PAST    1 000010001    1    0   10.23853E+01    73.700
PAST    1 000010001    1    0   11.23853E+01    57.500
PAST    1 000010001    1    0   12.23853E+01    84.000
PAST    1 000010001    1    0 2010.23853E+01  1454.500
PAST    1 000010001    1    0 11.0.23853E+01  1576.827
